BEGIN Configuration File: examples/focusconfig
topology = mesh;
k = 16;
n = 2;

sim_type = throughput;

packet_size = 1;
warmup_periods = 1;
sample_period = 30000;
max_samples = 20;

burst_alpha = 0.5;
burst_beta = -1.0;

// Routing

routing_function = dim_order;
// routing_function = min_adapt;
// routing_function = xy_yx;
// routing_function = romm;


// Flow control
num_vcs = 2;
vc_buf_size = 4;

// Traffic
traffic = focus;
injection_process = focus;

END Configuration File: examples/focusconfig
Warning: injection kernel is renewed
Warning: injection kernel is renewed
Class 0:
Packet latency average = 1742.03
	minimum = 18
	maximum = 23939
Network latency average = 63.5662
	minimum = 18
	maximum = 1490
Slowest packet = 2
Flit latency average = 31.2904
	minimum = 9
	maximum = 1145
Slowest flit = 105658
Fragmentation average = 9.1435
	minimum = 0
	maximum = 255
Injected packet rate average = 0.00161094
	minimum = 0 (at node 0)
	maximum = 0.0604333 (at node 59)
Accepted packet rate average = 0.00160872
	minimum = 0 (at node 30)
	maximum = 0.0167667 (at node 31)
Injected flit rate average = 0.0362548
	minimum = 0 (at node 0)
	maximum = 0.657667 (at node 51)
Accepted flit rate average= 0.0362262
	minimum = 0 (at node 30)
	maximum = 0.2056 (at node 59)
Injected packet length average = 22.5054
Accepted packet length average = 22.5186
Total in-flight flits = 425 (0 measured)
latency change    = 1
throughput change = 1
Warmed up ...Time used is 30000 cycles
Class 0:
Packet latency average = 5692.61
	minimum = 18
	maximum = 47877
Network latency average = 64.8439
	minimum = 18
	maximum = 1254
Slowest packet = 12378
Flit latency average = 33.4756
	minimum = 9
	maximum = 825
Slowest flit = 508217
Fragmentation average = 8.64258
	minimum = 0
	maximum = 254
Injected packet rate average = 0.00136354
	minimum = 0 (at node 0)
	maximum = 0.0606 (at node 59)
Accepted packet rate average = 0.00136289
	minimum = 0 (at node 30)
	maximum = 0.0161333 (at node 31)
Injected flit rate average = 0.0309109
	minimum = 0 (at node 0)
	maximum = 0.670767 (at node 51)
Accepted flit rate average= 0.0309069
	minimum = 0 (at node 30)
	maximum = 0.245933 (at node 59)
Injected packet length average = 22.6696
Accepted packet length average = 22.6775
Total in-flight flits = 841 (841 measured)
latency change    = 0.693984
throughput change = 0.172106
Class 0:
Packet latency average = 7596.09
	minimum = 18
	maximum = 71837
Network latency average = 64.885
	minimum = 18
	maximum = 1538
Slowest packet = 12378
Flit latency average = 33.6653
	minimum = 9
	maximum = 1252
Slowest flit = 555970
Fragmentation average = 8.49781
	minimum = 0
	maximum = 255
Injected packet rate average = 0.00135625
	minimum = 0 (at node 0)
	maximum = 0.0606 (at node 59)
Accepted packet rate average = 0.00135586
	minimum = 0 (at node 30)
	maximum = 0.0163833 (at node 31)
Injected flit rate average = 0.0305758
	minimum = 0 (at node 0)
	maximum = 0.670767 (at node 51)
Accepted flit rate average= 0.0305719
	minimum = 0 (at node 30)
	maximum = 0.240417 (at node 59)
Injected packet length average = 22.5444
Accepted packet length average = 22.548
Total in-flight flits = 1210 (1210 measured)
latency change    = 0.250587
throughput change = 0.0109565
Class 0:
Packet latency average = 9430.12
	minimum = 18
	maximum = 95743
Network latency average = 65.1453
	minimum = 18
	maximum = 1538
Slowest packet = 12378
Flit latency average = 33.9026
	minimum = 9
	maximum = 1252
Slowest flit = 555970
Fragmentation average = 8.42127
	minimum = 0
	maximum = 255
Injected packet rate average = 0.0013454
	minimum = 0 (at node 0)
	maximum = 0.0606111 (at node 187)
Accepted packet rate average = 0.00134497
	minimum = 0 (at node 30)
	maximum = 0.0157667 (at node 31)
Injected flit rate average = 0.0302911
	minimum = 0 (at node 0)
	maximum = 0.670722 (at node 51)
Accepted flit rate average= 0.0302868
	minimum = 0 (at node 30)
	maximum = 0.239867 (at node 59)
Injected packet length average = 22.5145
Accepted packet length average = 22.5187
Total in-flight flits = 778 (778 measured)
latency change    = 0.194486
throughput change = 0.00941303
Class 0:
Packet latency average = 11236.3
	minimum = 18
	maximum = 119885
Network latency average = 65.2519
	minimum = 18
	maximum = 1538
Slowest packet = 12378
Flit latency average = 33.9212
	minimum = 9
	maximum = 1252
Slowest flit = 555970
Fragmentation average = 8.41961
	minimum = 0
	maximum = 255
Injected packet rate average = 0.00134063
	minimum = 0 (at node 0)
	maximum = 0.0606083 (at node 187)
Accepted packet rate average = 0.00134046
	minimum = 0 (at node 30)
	maximum = 0.0155583 (at node 31)
Injected flit rate average = 0.0302553
	minimum = 0 (at node 0)
	maximum = 0.670708 (at node 51)
Accepted flit rate average= 0.0302544
	minimum = 0 (at node 30)
	maximum = 0.24415 (at node 59)
Injected packet length average = 22.568
Accepted packet length average = 22.5701
Total in-flight flits = 468 (468 measured)
latency change    = 0.160747
throughput change = 0.00107272
Draining remaining packets ...
Time taken is 150148 cycles
====== Overall Traffic Statistics ======
====== Traffic class 0 ======
Packet latency average = 11253.4 (1 samples)
	minimum = 18 (1 samples)
	maximum = 120098 (1 samples)
Network latency average = 65.2703 (1 samples)
	minimum = 18 (1 samples)
	maximum = 1538 (1 samples)
Flit latency average = 33.9264 (1 samples)
	minimum = 9 (1 samples)
	maximum = 1252 (1 samples)
Fragmentation average = 8.4233 (1 samples)
	minimum = 0 (1 samples)
	maximum = 255 (1 samples)
Injected packet rate average = 0.00134063 (1 samples)
	minimum = 0 (1 samples)
	maximum = 0.0606083 (1 samples)
Accepted packet rate average = 0.00134046 (1 samples)
	minimum = 0 (1 samples)
	maximum = 0.0155583 (1 samples)
Injected flit rate average = 0.0302553 (1 samples)
	minimum = 0 (1 samples)
	maximum = 0.670708 (1 samples)
Accepted flit rate average = 0.0302544 (1 samples)
	minimum = 0 (1 samples)
	maximum = 0.24415 (1 samples)
Injected packet size average = 22.568 (1 samples)
Accepted packet size average = 22.5701 (1 samples)
Hops average = 6.25481 (1 samples)
Total run time 86.893
BEGIN Configuration File: examples/focusconfig
topology = mesh;
k = 16;
n = 2;

sim_type = throughput;

packet_size = 1;
warmup_periods = 1;
sample_period = 30000;
max_samples = 20;

burst_alpha = 0.5;
burst_beta = -1.0;

// Routing

routing_function = dim_order;
// routing_function = min_adapt;
// routing_function = xy_yx;
// routing_function = romm;


// Flow control
num_vcs = 2;
vc_buf_size = 4;

// Traffic
traffic = focus;
injection_process = focus;

END Configuration File: examples/focusconfig
Warning: injection kernel is renewed
Warning: injection kernel is renewed
Class 0:
Packet latency average = 1583.05
	minimum = 17
	maximum = 18579
Network latency average = 50.1975
	minimum = 15
	maximum = 680
Slowest packet = 3
Flit latency average = 35.105
	minimum = 9
	maximum = 431
Slowest flit = 107656
Fragmentation average = 4.83437
	minimum = 0
	maximum = 126
Injected packet rate average = 0.00188581
	minimum = 0 (at node 0)
	maximum = 0.0604333 (at node 59)
Accepted packet rate average = 0.00188359
	minimum = 0 (at node 30)
	maximum = 0.0304333 (at node 31)
Injected flit rate average = 0.0247681
	minimum = 0 (at node 0)
	maximum = 0.651333 (at node 127)
Accepted flit rate average= 0.02475
	minimum = 0 (at node 30)
	maximum = 0.152167 (at node 31)
Injected packet length average = 13.134
Accepted packet length average = 13.1398
Total in-flight flits = 305 (0 measured)
latency change    = 1
throughput change = 1
Warmed up ...Time used is 30000 cycles
Class 0:
Packet latency average = 5251.48
	minimum = 17
	maximum = 37493
Network latency average = 52.2158
	minimum = 17
	maximum = 646
Slowest packet = 14486
Flit latency average = 37.217
	minimum = 9
	maximum = 404
Slowest flit = 214748
Fragmentation average = 4.74039
	minimum = 0
	maximum = 127
Injected packet rate average = 0.00163958
	minimum = 0 (at node 0)
	maximum = 0.0606333 (at node 187)
Accepted packet rate average = 0.00163828
	minimum = 0 (at node 30)
	maximum = 0.0307667 (at node 31)
Injected flit rate average = 0.0219777
	minimum = 0 (at node 0)
	maximum = 0.6533 (at node 127)
Accepted flit rate average= 0.0219691
	minimum = 0 (at node 30)
	maximum = 0.153833 (at node 31)
Injected packet length average = 13.4045
Accepted packet length average = 13.4099
Total in-flight flits = 326 (326 measured)
latency change    = 0.698552
throughput change = 0.12658
Class 0:
Packet latency average = 7003.72
	minimum = 17
	maximum = 56380
Network latency average = 52.2064
	minimum = 17
	maximum = 646
Slowest packet = 14486
Flit latency average = 37.4032
	minimum = 9
	maximum = 404
Slowest flit = 214748
Fragmentation average = 4.70097
	minimum = 0
	maximum = 127
Injected packet rate average = 0.00163294
	minimum = 0 (at node 0)
	maximum = 0.0606333 (at node 187)
Accepted packet rate average = 0.00163249
	minimum = 0 (at node 30)
	maximum = 0.0307833 (at node 31)
Injected flit rate average = 0.0218086
	minimum = 0 (at node 0)
	maximum = 0.652983 (at node 127)
Accepted flit rate average= 0.0218023
	minimum = 0 (at node 30)
	maximum = 0.153917 (at node 31)
Injected packet length average = 13.3554
Accepted packet length average = 13.3553
Total in-flight flits = 400 (400 measured)
latency change    = 0.250187
throughput change = 0.00765342
Class 0:
Packet latency average = 8804.26
	minimum = 17
	maximum = 75144
Network latency average = 52.2054
	minimum = 17
	maximum = 762
Slowest packet = 14486
Flit latency average = 37.497
	minimum = 9
	maximum = 546
Slowest flit = 658243
Fragmentation average = 4.68591
	minimum = 0
	maximum = 127
Injected packet rate average = 0.00162808
	minimum = 0 (at node 0)
	maximum = 0.0606222 (at node 187)
Accepted packet rate average = 0.00162734
	minimum = 0 (at node 30)
	maximum = 0.0307778 (at node 31)
Injected flit rate average = 0.0217195
	minimum = 0 (at node 0)
	maximum = 0.6528 (at node 127)
Accepted flit rate average= 0.0217101
	minimum = 0 (at node 30)
	maximum = 0.153889 (at node 31)
Injected packet length average = 13.3405
Accepted packet length average = 13.3408
Total in-flight flits = 739 (739 measured)
latency change    = 0.204508
throughput change = 0.00424529
Class 0:
Packet latency average = 10548.7
	minimum = 17
	maximum = 94022
Network latency average = 52.2627
	minimum = 17
	maximum = 762
Slowest packet = 14486
Flit latency average = 37.5496
	minimum = 9
	maximum = 546
Slowest flit = 658243
Fragmentation average = 4.68622
	minimum = 0
	maximum = 127
Injected packet rate average = 0.00162516
	minimum = 0 (at node 0)
	maximum = 0.060625 (at node 187)
Accepted packet rate average = 0.00162503
	minimum = 0 (at node 30)
	maximum = 0.0307 (at node 31)
Injected flit rate average = 0.0216825
	minimum = 0 (at node 0)
	maximum = 0.652908 (at node 127)
Accepted flit rate average= 0.0216804
	minimum = 0 (at node 30)
	maximum = 0.1535 (at node 31)
Injected packet length average = 13.3417
Accepted packet length average = 13.3415
Total in-flight flits = 323 (323 measured)
latency change    = 0.16537
throughput change = 0.00136882
Draining remaining packets ...
Time taken is 150116 cycles
====== Overall Traffic Statistics ======
====== Traffic class 0 ======
Packet latency average = 10552.2 (1 samples)
	minimum = 17 (1 samples)
	maximum = 94029 (1 samples)
Network latency average = 52.2663 (1 samples)
	minimum = 17 (1 samples)
	maximum = 762 (1 samples)
Flit latency average = 37.553 (1 samples)
	minimum = 9 (1 samples)
	maximum = 546 (1 samples)
Fragmentation average = 4.68647 (1 samples)
	minimum = 0 (1 samples)
	maximum = 127 (1 samples)
Injected packet rate average = 0.00162516 (1 samples)
	minimum = 0 (1 samples)
	maximum = 0.060625 (1 samples)
Accepted packet rate average = 0.00162503 (1 samples)
	minimum = 0 (1 samples)
	maximum = 0.0307 (1 samples)
Injected flit rate average = 0.0216825 (1 samples)
	minimum = 0 (1 samples)
	maximum = 0.652908 (1 samples)
Accepted flit rate average = 0.0216804 (1 samples)
	minimum = 0 (1 samples)
	maximum = 0.1535 (1 samples)
Injected packet size average = 13.3417 (1 samples)
Accepted packet size average = 13.3415 (1 samples)
Hops average = 6.39605 (1 samples)
Total run time 79.7991
Info: Working for unet_layer1
====================== FINISH =========================


Info: Working for unet_layer2
====================== FINISH =========================


Info: Working for unet_layer3
====================== FINISH =========================


Info: Working for unet_layer4
====================== FINISH =========================


Info: Working for unet_layer5
====================== FINISH =========================


Info: Working for unet_layer6
====================== FINISH =========================


Info: Working for unet_layer7
====================== FINISH =========================


Info: Working for unet_layer8
====================== FINISH =========================


Info: Working for unet_layer9
====================== FINISH =========================


Info: Working for unet_layer10
====================== FINISH =========================


Info: Working for unet_layer11
====================== FINISH =========================


Info: Working for unet_layer12
====================== FINISH =========================


Info: Working for unet_layer13
====================== FINISH =========================


Info: Working for unet_layer14
====================== FINISH =========================


Info: Working for unet_layer15
====================== FINISH =========================


Info: Working for unet_layer16
====================== FINISH =========================


Info: Working for vgg16_layer1
====================== FINISH =========================


Info: Working for vgg16_layer2
====================== FINISH =========================


Info: Working for vgg16_layer3
====================== FINISH =========================


Info: Working for vgg16_layer4
====================== FINISH =========================


Info: Working for mnasnet_layer1
====================== FINISH =========================


Info: Working for mnasnet_layer2
====================== FINISH =========================


Info: Working for mnasnet_layer3
====================== FINISH =========================


Info: Working for mnasnet_layer4
====================== FINISH =========================


Info: Working for inception_layer1
====================== FINISH =========================


Info: Working for inception_layer2
====================== FINISH =========================


Info: Working for inception_layer3
====================== FINISH =========================


Info: Working for inception_layer4
====================== FINISH =========================


Info: Working for inception_layer5
====================== FINISH =========================


Info: Working for inception_layer6
====================== FINISH =========================


Info: Working for inception_layer7
====================== FINISH =========================


Info: Working for inception_layer8
====================== FINISH =========================


[[16 16 16 16 19 19 19 19  0  0  1  1  2  2  2  2]
 [16 16 16 16 19 19 19 19  0  0  1  1  2  2  2  2]
 [16 16 16 16 19 19 19 19  0  0  1  1  3  3  3  3]
 [16 16 16 16 19 19 19 19  0  0  1  1  3  3  3  3]
 [17 17 17 17 18 18 18 18  7  7  6  6  4  4  4  4]
 [17 17 17 17 18 18 18 18  7  7  6  6  4  4  4  4]
 [17 17 17 17 18 18 18 18  7  7  6  6  5  5  5  5]
 [17 17 17 17 18 18 18 18  7  7  6  6  5  5  5  5]
 [26 26 25 25 23 23 22 22  8  8  9  9 10 10 10 10]
 [26 26 25 25 23 23 22 22  8  8  9  9 10 10 10 10]
 [27 27 24 24 23 23 22 22  8  8  9  9 11 11 11 11]
 [27 27 24 24 23 23 22 22  8  8  9  9 11 11 11 11]
 [28 28 29 29 21 21 21 21 15 15 14 14 12 12 12 12]
 [28 28 29 29 21 21 21 21 15 15 14 14 12 12 12 12]
 [31 31 30 30 20 20 20 20 15 15 14 14 13 13 13 13]
 [31 31 30 30 20 20 20 20 15 15 14 14 13 13 13 13]]
Info: Working for unet_layer1
====================== FINISH =========================


Info: Working for unet_layer2
====================== FINISH =========================


Info: Working for unet_layer3
====================== FINISH =========================


Info: Working for unet_layer4
====================== FINISH =========================


Info: Working for unet_layer5
====================== FINISH =========================


Info: Working for unet_layer6
====================== FINISH =========================


Info: Working for unet_layer7
====================== FINISH =========================


Info: Working for unet_layer8
====================== FINISH =========================


Info: Working for unet_layer9
====================== FINISH =========================


Info: Working for unet_layer10
====================== FINISH =========================


Info: Working for unet_layer11
====================== FINISH =========================


Info: Working for unet_layer12
====================== FINISH =========================


Info: Working for unet_layer13
====================== FINISH =========================


Info: Working for unet_layer14
====================== FINISH =========================


Info: Working for unet_layer15
====================== FINISH =========================


Info: Working for unet_layer16
====================== FINISH =========================


Info: Working for vgg16_layer1
====================== FINISH =========================


Info: Working for vgg16_layer2
====================== FINISH =========================


Info: Working for vgg16_layer3
====================== FINISH =========================


Info: Working for vgg16_layer4
====================== FINISH =========================


Info: Working for mnasnet_layer1
====================== FINISH =========================


Info: Working for mnasnet_layer2
====================== FINISH =========================


Info: Working for mnasnet_layer3
====================== FINISH =========================


Info: Working for mnasnet_layer4
====================== FINISH =========================


Info: Working for inception_layer1
====================== FINISH =========================


Info: Working for inception_layer2
====================== FINISH =========================


Info: Working for inception_layer3
====================== FINISH =========================


Info: Working for inception_layer4
====================== FINISH =========================


Info: Working for inception_layer5
====================== FINISH =========================


Info: Working for inception_layer6
====================== FINISH =========================


Info: Working for inception_layer7
====================== FINISH =========================


Info: Working for inception_layer8
====================== FINISH =========================


[[16 16 16 16 19 19 19 19  0  0  1  1  2  2  2  2]
 [16 16 16 16 19 19 19 19  0  0  1  1  2  2  2  2]
 [16 16 16 16 19 19 19 19  0  0  1  1  3  3  3  3]
 [16 16 16 16 19 19 19 19  0  0  1  1  3  3  3  3]
 [17 17 17 17 18 18 18 18  7  7  6  6  4  4  4  4]
 [17 17 17 17 18 18 18 18  7  7  6  6  4  4  4  4]
 [17 17 17 17 18 18 18 18  7  7  6  6  5  5  5  5]
 [17 17 17 17 18 18 18 18  7  7  6  6  5  5  5  5]
 [26 26 25 25 23 23 22 22  8  8  9  9 10 10 10 10]
 [26 26 25 25 23 23 22 22  8  8  9  9 10 10 10 10]
 [27 27 24 24 23 23 22 22  8  8  9  9 11 11 11 11]
 [27 27 24 24 23 23 22 22  8  8  9  9 11 11 11 11]
 [28 28 29 29 21 21 21 21 15 15 14 14 12 12 12 12]
 [28 28 29 29 21 21 21 21 15 15 14 14 12 12 12 12]
 [31 31 30 30 20 20 20 20 15 15 14 14 13 13 13 13]
 [31 31 30 30 20 20 20 20 15 15 14 14 13 13 13 13]]
Info: Working for unet_layer1
====================== FINISH =========================


Info: Working for unet_layer2
====================== FINISH =========================


Info: Working for unet_layer3
====================== FINISH =========================


Info: Working for unet_layer4
====================== FINISH =========================


Info: Working for unet_layer5
====================== FINISH =========================


Info: Working for unet_layer6
====================== FINISH =========================


Info: Working for unet_layer7
====================== FINISH =========================


Info: Working for unet_layer8
====================== FINISH =========================


Info: Working for unet_layer9
====================== FINISH =========================


Info: Working forBEGIN Configuration File: examples/focusconfig
topology = mesh;
k = 16;
n = 2;

sim_type = throughput;

packet_size = 1;
warmup_periods = 1;
sample_period = 30000;
max_samples = 20;

burst_alpha = 0.5;
burst_beta = -1.0;

// Routing

routing_function = dim_order;
// routing_function = min_adapt;
// routing_function = xy_yx;
// routing_function = romm;


// Flow control
num_vcs = 2;
vc_buf_size = 4;

// Traffic
traffic = focus;
injection_process = focus;

END Configuration File: examples/focusconfig
Warning: injection kernel is renewed
Warning: injection kernel is renewed
Class 0:
Packet latency average = 1361.99
	minimum = 14
	maximum = 14386
Network latency average = 45.4755
	minimum = 14
	maximum = 461
Slowest packet = 5
Flit latency average = 36.974
	minimum = 9
	maximum = 376
Slowest flit = 84709
Fragmentation average = 3.03763
	minimum = 0
	maximum = 83
Injected packet rate average = 0.00202656
	minimum = 0 (at node 0)
	maximum = 0.0604333 (at node 59)
Accepted packet rate average = 0.00202422
	minimum = 0 (at node 30)
	maximum = 0.0304333 (at node 31)
Injected flit rate average = 0.0196052
	minimum = 0 (at node 0)
	maximum = 0.6568 (at node 127)
Accepted flit rate average= 0.0195906
	minimum = 0 (at node 30)
	maximum = 0.117633 (at node 12)
Injected packet length average = 9.67412
Accepted packet length average = 9.67812
Total in-flight flits = 180 (0 measured)
latency change    = 1
throughput change = 1
Warmed up ...Time used is 30000 cycles
Class 0:
Packet latency average = 4558.54
	minimum = 14
	maximum = 28748
Network latency average = 47.515
	minimum = 14
	maximum = 488
Slowest packet = 15564
Flit latency average = 39.0835
	minimum = 9
	maximum = 396
Slowest flit = 253097
Fragmentation average = 3.04001
	minimum = 0
	maximum = 83
Injected packet rate average = 0.00178372
	minimum = 0 (at node 0)
	maximum = 0.0606333 (at node 59)
Accepted packet rate average = 0.00178268
	minimum = 0 (at node 30)
	maximum = 0.0307667 (at node 31)
Injected flit rate average = 0.017677
	minimum = 0 (at node 0)
	maximum = 0.6598 (at node 127)
Accepted flit rate average= 0.0176714
	minimum = 0 (at node 30)
	maximum = 0.117333 (at node 15)
Injected packet length average = 9.91014
Accepted packet length average = 9.91279
Total in-flight flits = 245 (245 measured)
latency change    = 0.701223
throughput change = 0.108609
Class 0:
Packet latency average = 6083.79
	minimum = 14
	maximum = 43368
Network latency average = 47.5218
	minimum = 14
	maximum = 521
Slowest packet = 15564
Flit latency average = 39.1745
	minimum = 9
	maximum = 396
Slowest flit = 253097
Fragmentation average = 3.00821
	minimum = 0
	maximum = 83
Injected packet rate average = 0.00177806
	minimum = 0 (at node 0)
	maximum = 0.0606333 (at node 59)
Accepted packet rate average = 0.00177786
	minimum = 0 (at node 30)
	maximum = 0.0307833 (at node 31)
Injected flit rate average = 0.0175821
	minimum = 0 (at node 0)
	maximum = 0.659433 (at node 127)
Accepted flit rate average= 0.0175795
	minimum = 0 (at node 30)
	maximum = 0.1174 (at node 13)
Injected packet length average = 9.88836
Accepted packet length average = 9.88798
Total in-flight flits = 175 (175 measured)
latency change    = 0.250707
throughput change = 0.00522552
Class 0:
Packet latency average = 7624.25
	minimum = 14
	maximum = 57723
Network latency average = 47.5039
	minimum = 14
	maximum = 525
Slowest packet = 15564
Flit latency average = 39.2235
	minimum = 9
	maximum = 410
Slowest flit = 445449
Fragmentation average = 2.99747
	minimum = 0
	maximum = 85
Injected packet rate average = 0.00177135
	minimum = 0 (at node 0)
	maximum = 0.0606333 (at node 187)
Accepted packet rate average = 0.00177049
	minimum = 0 (at node 30)
	maximum = 0.0307889 (at node 31)
Injected flit rate average = 0.0175076
	minimum = 0 (at node 0)
	maximum = 0.659489 (at node 127)
Accepted flit rate average= 0.0174984
	minimum = 0 (at node 30)
	maximum = 0.117033 (at node 12)
Injected packet length average = 9.88371
Accepted packet length average = 9.88336
Total in-flight flits = 617 (617 measured)
latency change    = 0.202047
throughput change = 0.00463709
Class 0:
Packet latency average = 9145.74
	minimum = 14
	maximum = 72310
Network latency average = 47.5486
	minimum = 14
	maximum = 525
Slowest packet = 15564
Flit latency average = 39.244
	minimum = 9
	maximum = 507
Slowest flit = 554749
Fragmentation average = 2.9963
	minimum = 0
	maximum = 85
Injected packet rate average = 0.00176787
	minimum = 0 (at node 0)
	maximum = 0.0606333 (at node 187)
Accepted packet rate average = 0.00176732
	minimum = 0 (at node 30)
	maximum = 0.0307833 (at node 31)
Injected flit rate average = 0.0174645
	minimum = 0 (at node 0)
	maximum = 0.65935 (at node 127)
Accepted flit rate average= 0.0174601
	minimum = 0 (at node 30)
	maximum = 0.11685 (at node 13)
Injected packet length average = 9.87884
Accepted packet length average = 9.87941
Total in-flight flits = 317 (317 measured)
latency change    = 0.166361
throughput change = 0.00219313
Draining remaining packets ...
Time taken is 150134 cycles
====== Overall Traffic Statistics ======
====== Traffic class 0 ======
Packet latency average = 9147.59 (1 samples)
	minimum = 14 (1 samples)
	maximum = 72366 (1 samples)
Network latency average = 47.5518 (1 samples)
	minimum = 14 (1 samples)
	maximum = 525 (1 samples)
Flit latency average = 39.2496 (1 samples)
	minimum = 9 (1 samples)
	maximum = 507 (1 samples)
Fragmentation average = 2.99674 (1 samples)
	minimum = 0 (1 samples)
	maximum = 85 (1 samples)
Injected packet rate average = 0.00176787 (1 samples)
	minimum = 0 (1 samples)
	maximum = 0.0606333 (1 samples)
Accepted packet rate average = 0.00176732 (1 samples)
	minimum = 0 (1 samples)
	maximum = 0.0307833 (1 samples)
Injected flit rate average = 0.0174645 (1 samples)
	minimum = 0 (1 samples)
	maximum = 0.65935 (1 samples)
Accepted flit rate average = 0.0174601 (1 samples)
	minimum = 0 (1 samples)
	maximum = 0.11685 (1 samples)
Injected packet size average = 9.87884 (1 samples)
Accepted packet size average = 9.87941 (1 samples)
Hops average = 6.47307 (1 samples)
Total run time 73.5634
BEGIN Configuration File: examples/focusconfig
topology = mesh;
k = 16;
n = 2;

sim_type = throughput;

packet_size = 1;
warmup_periods = 1;
sample_period = 30000;
max_samples = 20;

burst_alpha = 0.5;
burst_beta = -1.0;

// Routing

routing_function = dim_order;
// routing_function = min_adapt;
// routing_function = xy_yx;
// routing_function = romm;


// Flow control
num_vcs = 2;
vc_buf_size = 4;

// Traffic
traffic = focus;
injection_process = focus;

END Configuration File: examples/focusconfig
Warning: injection kernel is renewed
Warning: injection kernel is renewed
Class 0:
Packet latency average = 1048.92
	minimum = 14
	maximum = 11413
Network latency average = 43.6287
	minimum = 14
	maximum = 451
Slowest packet = 8
Flit latency average = 37.6045
	minimum = 9
	maximum = 384
Slowest flit = 73256
Fragmentation average = 2.50324
	minimum = 0
	maximum = 62
Injected packet rate average = 0.00213021
	minimum = 0 (at node 0)
	maximum = 0.0675667 (at node 127)
Accepted packet rate average = 0.00212786
	minimum = 0 (at node 30)
	maximum = 0.0304333 (at node 31)
Injected flit rate average = 0.0171822
	minimum = 0 (at node 0)
	maximum = 0.638867 (at node 127)
Accepted flit rate average= 0.0171673
	minimum = 0 (at node 30)
	maximum = 0.117967 (at node 12)
Injected packet length average = 8.06595
Accepted packet length average = 8.06786
Total in-flight flits = 137 (0 measured)
latency change    = 1
throughput change = 1
Warmed up ...Time used is 30000 cycles
Class 0:
Packet latency average = 3479.44
	minimum = 14
	maximum = 22775
Network latency average = 45.6006
	minimum = 14
	maximum = 454
Slowest packet = 16362
Flit latency average = 39.7248
	minimum = 9
	maximum = 390
Slowest flit = 221840
Fragmentation average = 2.50394
	minimum = 0
	maximum = 63
Injected packet rate average = 0.0018875
	minimum = 0 (at node 0)
	maximum = 0.0678667 (at node 127)
Accepted packet rate average = 0.00188568
	minimum = 0 (at node 30)
	maximum = 0.0307667 (at node 31)
Injected flit rate average = 0.015578
	minimum = 0 (at node 0)
	maximum = 0.6419 (at node 127)
Accepted flit rate average= 0.0155721
	minimum = 0 (at node 30)
	maximum = 0.1172 (at node 15)
Injected packet length average = 8.25324
Accepted packet length average = 8.25811
Total in-flight flits = 166 (166 measured)
latency change    = 0.698537
throughput change = 0.102438
Class 0:
Packet latency average = 4642.48
	minimum = 14
	maximum = 34076
Network latency average = 45.6349
	minimum = 14
	maximum = 454
Slowest packet = 16362
Flit latency average = 39.8129
	minimum = 9
	maximum = 390
Slowest flit = 221840
Fragmentation average = 2.49174
	minimum = 0
	maximum = 63
Injected packet rate average = 0.00188138
	minimum = 0 (at node 0)
	maximum = 0.06785 (at node 127)
Accepted packet rate average = 0.00188132
	minimum = 0 (at node 30)
	maximum = 0.0307833 (at node 31)
Injected flit rate average = 0.0154985
	minimum = 0 (at node 0)
	maximum = 0.641633 (at node 127)
Accepted flit rate average= 0.0154979
	minimum = 0 (at node 30)
	maximum = 0.11705 (at node 13)
Injected packet length average = 8.23784
Accepted packet length average = 8.23781
Total in-flight flits = 150 (150 measured)
latency change    = 0.250521
throughput change = 0.00478895
Class 0:
Packet latency average = 5825.66
	minimum = 14
	maximum = 45450
Network latency average = 45.6187
	minimum = 14
	maximum = 454
Slowest packet = 16362
Flit latency average = 39.8158
	minimum = 9
	maximum = 390
Slowest flit = 221840
Fragmentation average = 2.48863
	minimum = 0
	maximum = 63
Injected packet rate average = 0.00187569
	minimum = 0 (at node 0)
	maximum = 0.0678556 (at node 127)
Accepted packet rate average = 0.00187474
	minimum = 0 (at node 30)
	maximum = 0.0307889 (at node 31)
Injected flit rate average = 0.0154556
	minimum = 0 (at node 0)
	maximum = 0.641644 (at node 127)
Accepted flit rate average= 0.0154462
	minimum = 0 (at node 30)
	maximum = 0.1171 (at node 13)
Injected packet length average = 8.23993
Accepted packet length average = 8.23913
Total in-flight flits = 548 (548 measured)
latency change    = 0.203097
throughput change = 0.00334662
Class 0:
Packet latency average = 7000.56
	minimum = 14
	maximum = 56766
Network latency average = 45.6372
	minimum = 14
	maximum = 454
Slowest packet = 16362
Flit latency average = 39.8292
	minimum = 9
	maximum = 390
Slowest flit = 221840
Fragmentation average = 2.49226
	minimum = 0
	maximum = 63
Injected packet rate average = 0.00187363
	minimum = 0 (at node 0)
	maximum = 0.0678833 (at node 127)
Accepted packet rate average = 0.00187327
	minimum = 0 (at node 30)
	maximum = 0.0307917 (at node 31)
Injected flit rate average = 0.0154354
	minimum = 0 (at node 0)
	maximum = 0.641658 (at node 127)
Accepted flit rate average= 0.0154328
	minimum = 0 (at node 30)
	maximum = 0.11735 (at node 13)
Injected packet length average = 8.23825
Accepted packet length average = 8.23843
Total in-flight flits = 215 (215 measured)
latency change    = 0.16783
throughput change = 0.000866911
Draining remaining packets ...
Time taken is 150062 cycles
====== Overall Traffic Statistics ======
====== Traffic class 0 ======
Packet latency average = 7002.67 (1 samples)
	minimum = 14 (1 samples)
	maximum = 56766 (1 samples)
Network latency average = 45.6367 (1 samples)
	minimum = 14 (1 samples)
	maximum = 454 (1 samples)
Flit latency average = 39.829 (1 samples)
	minimum = 9 (1 samples)
	maximum = 390 (1 samples)
Fragmentation average = 2.49201 (1 samples)
	minimum = 0 (1 samples)
	maximum = 63 (1 samples)
Injected packet rate average = 0.00187363 (1 samples)
	minimum = 0 (1 samples)
	maximum = 0.0678833 (1 samples)
Accepted packet rate average = 0.00187327 (1 samples)
	minimum = 0 (1 samples)
	maximum = 0.0307917 (1 samples)
Injected flit rate average = 0.0154354 (1 samples)
	minimum = 0 (1 samples)
	maximum = 0.641658 (1 samples)
Accepted flit rate average = 0.0154328 (1 samples)
	minimum = 0 (1 samples)
	maximum = 0.11735 (1 samples)
Injected packet size average = 8.23825 (1 samples)
Accepted packet size average = 8.23843 (1 samples)
Hops average = 6.50956 (1 samples)
Total run time 69.8211
 unet_layer10
====================== FINISH =========================


Info: Working for unet_layer11
====================== FINISH =========================


Info: Working for unet_layer12
====================== FINISH =========================


Info: Working for unet_layer13
====================== FINISH =========================


Info: Working for unet_layer14
====================== FINISH =========================


Info: Working for unet_layer15
====================== FINISH =========================


Info: Working for unet_layer16
====================== FINISH =========================


Info: Working for vgg16_layer1
====================== FINISH =========================


Info: Working for vgg16_layer2
====================== FINISH =========================


Info: Working for vgg16_layer3
====================== FINISH =========================


Info: Working for vgg16_layer4
====================== FINISH =========================


Info: Working for mnasnet_layer1
====================== FINISH =========================


Info: Working for mnasnet_layer2
====================== FINISH =========================


Info: Working for mnasnet_layer3
====================== FINISH =========================


Info: Working for mnasnet_layer4
====================== FINISH =========================


Info: Working for inception_layer1
====================== FINISH =========================


Info: Working for inception_layer2
====================== FINISH =========================


Info: Working for inception_layer3
====================== FINISH =========================


Info: Working for inception_layer4
====================== FINISH =========================


Info: Working for inception_layer5
====================== FINISH =========================


Info: Working for inception_layer6
====================== FINISH =========================


Info: Working for inception_layer7
====================== FINISH =========================


Info: Working for inception_layer8
====================== FINISH =========================


[[16 16 16 16 19 19 19 19  0  0  1  1  2  2  2  2]
 [16 16 16 16 19 19 19 19  0  0  1  1  2  2  2  2]
 [16 16 16 16 19 19 19 19  0  0  1  1  3  3  3  3]
 [16 16 16 16 19 19 19 19  0  0  1  1  3  3  3  3]
 [17 17 17 17 18 18 18 18  7  7  6  6  4  4  4  4]
 [17 17 17 17 18 18 18 18  7  7  6  6  4  4  4  4]
 [17 17 17 17 18 18 18 18  7  7  6  6  5  5  5  5]
 [17 17 17 17 18 18 18 18  7  7  6  6  5  5  5  5]
 [26 26 25 25 23 23 22 22  8  8  9  9 10 10 10 10]
 [26 26 25 25 23 23 22 22  8  8  9  9 10 10 10 10]
 [27 27 24 24 23 23 22 22  8  8  9  9 11 11 11 11]
 [27 27 24 24 23 23 22 22  8  8  9  9 11 11 11 11]
 [28 28 29 29 21 21 21 21 15 15 14 14 12 12 12 12]
 [28 28 29 29 21 21 21 21 15 15 14 14 12 12 12 12]
 [31 31 30 30 20 20 20 20 15 15 14 14 13 13 13 13]
 [31 31 30 30 20 20 20 20 15 15 14 14 13 13 13 13]]
Info: Working for unet_layer1
====================== FINISH =========================


Info: Working for unet_layer2
====================== FINISH =========================


Info: Working for unet_layer3
====================== FINISH =========================


Info: Working for unet_layer4
====================== FINISH =========================


Info: Working for unet_layer5
====================== FINISH =========================


Info: Working for unet_layer6
====================== FINISH =========================


Info: Working for unet_layer7
====================== FINISH =========================


Info: Working for unet_layer8
====================== FINISH =========================


Info: Working for unet_layer9
====================== FINISH =========================


Info: Working for unet_layer10
====================== FINISH =========================


Info: Working for unet_layer11
====================== FINISH =========================


Info: Working for unet_layer12
====================== FINISH =========================


Info: Working for unet_layer13
====================== FINISH =========================


Info: Working for unet_layer14
====================== FINISH =========================


Info: Working for unet_layer15
====================== FINISH =========================


Info: Working for unet_layer16
====================== FINISH =========================


Info: Working for vgg16_layer1
====================== FINISH =========================


Info: Working for vgg16_layer2
====================== FINISH =========================


Info: Working for vgg16_layer3
====================== FINISH =========================


Info: Working for vgg16_layer4
====================== FINISH =========================


Info: Working for mnasnet_layer1
====================== FINISH =========================


Info: Working for mnasnet_layer2
====================== FINISH =========================


Info: Working for mnasnet_layer3
====================== FINISH =========================


Info: Working for mnasnet_layer4
====================== FINISH =========================


Info: Working for inception_layer1
====================== FINISH =========================


Info: Working for inception_layer2
====================== FINISH =========================


Info: Working for inception_layer3
====================== FINISH =========================


Info: Working for inception_layer4
====================== FINISH =========================


Info: Working for inception_layer5
====================== FINISH =========================


Info: Working for inception_layer6
====================== FINISH =========================


Info: Working for inception_layer7
====================== FINISH =========================


Info: Working for inception_layer8
====================== FINISH =========================


[[16 16 16 16 19 19 19 19  0  0  1  1  2  2  2  2]
 [16 16 16 16 19 19 19 19  0  0  1  1  2  2  2  2]
 [16 16 16 16 19 19 19 19  0  0  1  1  3  3  3  3]
 [16 16 16 16 19 19 19 19  0  0  1  1  3  3  3  3]
 [17 17 17 17 18 18 18 18  7  7  6  6  4  4  4  4]
 [17 17 17 17 18 18 18 18  7  7  6  6  4  4  4  4]
 [17 17 17 17 18 18 18 18  7  7  6  6  5  5  5  5]
 [17 17 17 17 18 18 18 18  7  7  6  6  5  5  5  5]
 [26 26 25 25 23 23 22 22  8  8  9  9 10 10 10 10]
 [26 26 25 25 23 23 22 22  8  8  9  9 10 10 10 10]
 [27 27 24 24 23 23 22 22  8  8  9  9 11 11 11 11]
 [27 27 24 24 23 23 22 22  8  8  9  9 11 11 11 11]
 [28 28 29 29 21 21 21 21 15 15 14 14 12 12 12 12]
 [28 28 29 29 21 21 21 21 15 15 14 14 12 12 12 12]
 [31 31 30 30 20 20 20 20 15 15 14 14 13 13 13 13]
 [31 31 30 30 20 20 20 20 15 15 14 14 13 13 13 13]]
Info: Working for unet_layer1
====================== FINISH =========================


Info: Working for unet_layer2
====================== FINISH =========================


Info: Working for unet_layer3
====================== FINISH =========================


Info: Working for unet_layer4
====================== FINISH =========================


Info: Working for unet_layer5
====================== FINISH =========================


Info: Working for unet_layer6
====================== FINISH =========================


Info: Working for unet_layer7
====================== FINISH =========================


Info: Working for unet_layer8
====================== FINISH =========================


Info: Working for unet_layer9
====================== FINISH =========================


Info: Working for unet_layer10
====================== FINISH =========================


Info: Working for unet_layer11
====================== FINISH =========================


Info: Working for unet_layer12
====================== FINISH =========================


Info: Working for unet_layer13
====================== FINISH =========================


Info: Working for unet_layer14
====================== FINISH =========================


Info: Working for unet_layer15
====================== FINISH =========================


Info: Working for unet_layer16
====================== FINISH =========================


Info: Working for vgg16_layer1
====================== FINISH =========================


Info: Working for vgg16_layer2
====================== FINISH =========================


Info: Working forBEGIN Configuration File: examples/focusconfig
topology = mesh;
k = 16;
n = 2;

sim_type = throughput;

packet_size = 1;
warmup_periods = 1;
sample_period = 30000;
max_samples = 20;

burst_alpha = 0.5;
burst_beta = -1.0;

// Routing

routing_function = dim_order;
// routing_function = min_adapt;
// routing_function = xy_yx;
// routing_function = romm;


// Flow control
num_vcs = 2;
vc_buf_size = 4;

// Traffic
traffic = focus;
injection_process = focus;

END Configuration File: examples/focusconfig
Warning: injection kernel is renewed
Warning: injection kernel is renewed
Class 0:
Packet latency average = 370.766
	minimum = 13
	maximum = 3656
Network latency average = 41.9281
	minimum = 13
	maximum = 363
Slowest packet = 10
Flit latency average = 38.2031
	minimum = 9
	maximum = 310
Slowest flit = 65191
Fragmentation average = 1.6504
	minimum = 0
	maximum = 50
Injected packet rate average = 0.00229284
	minimum = 0 (at node 0)
	maximum = 0.0957667 (at node 127)
Accepted packet rate average = 0.00228984
	minimum = 0 (at node 30)
	maximum = 0.0304333 (at node 31)
Injected flit rate average = 0.0153719
	minimum = 0 (at node 0)
	maximum = 0.707033 (at node 127)
Accepted flit rate average= 0.0153574
	minimum = 0 (at node 30)
	maximum = 0.100667 (at node 12)
Injected packet length average = 6.7043
Accepted packet length average = 6.70676
Total in-flight flits = 137 (0 measured)
latency change    = 1
throughput change = 1
Warmed up ...Time used is 30000 cycles
Class 0:
Packet latency average = 1068.79
	minimum = 13
	maximum = 7275
Network latency average = 43.8051
	minimum = 13
	maximum = 319
Slowest packet = 17613
Flit latency average = 40.2905
	minimum = 9
	maximum = 264
Slowest flit = 199298
Fragmentation average = 1.63978
	minimum = 0
	maximum = 49
Injected packet rate average = 0.0020569
	minimum = 0 (at node 0)
	maximum = 0.0960667 (at node 127)
Accepted packet rate average = 0.00205508
	minimum = 0 (at node 30)
	maximum = 0.0307667 (at node 31)
Injected flit rate average = 0.0140703
	minimum = 0 (at node 0)
	maximum = 0.7116 (at node 127)
Accepted flit rate average= 0.014065
	minimum = 0 (at node 30)
	maximum = 0.101 (at node 12)
Injected packet length average = 6.84054
Accepted packet length average = 6.84401
Total in-flight flits = 171 (171 measured)
latency change    = 0.653096
throughput change = 0.0918912
Class 0:
Packet latency average = 1399.38
	minimum = 13
	maximum = 10928
Network latency average = 43.8887
	minimum = 13
	maximum = 364
Slowest packet = 17613
Flit latency average = 40.4099
	minimum = 9
	maximum = 311
Slowest flit = 286845
Fragmentation average = 1.64256
	minimum = 0
	maximum = 50
Injected packet rate average = 0.00204941
	minimum = 0 (at node 0)
	maximum = 0.0959833 (at node 127)
Accepted packet rate average = 0.00204948
	minimum = 0 (at node 30)
	maximum = 0.0307833 (at node 31)
Injected flit rate average = 0.0139941
	minimum = 0 (at node 0)
	maximum = 0.7113 (at node 127)
Accepted flit rate average= 0.0139936
	minimum = 0 (at node 30)
	maximum = 0.101 (at node 12)
Injected packet length average = 6.82836
Accepted packet length average = 6.82789
Total in-flight flits = 134 (134 measured)
latency change    = 0.236245
throughput change = 0.00509905
Class 0:
Packet latency average = 1735.64
	minimum = 13
	maximum = 14535
Network latency average = 43.868
	minimum = 13
	maximum = 364
Slowest packet = 17613
Flit latency average = 40.4131
	minimum = 9
	maximum = 311
Slowest flit = 286845
Fragmentation average = 1.63563
	minimum = 0
	maximum = 50
Injected packet rate average = 0.00204397
	minimum = 0 (at node 0)
	maximum = 0.0960111 (at node 127)
Accepted packet rate average = 0.00204266
	minimum = 0 (at node 30)
	maximum = 0.0307889 (at node 31)
Injected flit rate average = 0.0139585
	minimum = 0 (at node 0)
	maximum = 0.711444 (at node 127)
Accepted flit rate average= 0.013948
	minimum = 0 (at node 30)
	maximum = 0.101 (at node 29)
Injected packet length average = 6.82913
Accepted packet length average = 6.82832
Total in-flight flits = 577 (577 measured)
latency change    = 0.193737
throughput change = 0.00327358
Class 0:
Packet latency average = 2068.25
	minimum = 13
	maximum = 18230
Network latency average = 43.9071
	minimum = 13
	maximum = 364
Slowest packet = 17613
Flit latency average = 40.443
	minimum = 9
	maximum = 311
Slowest flit = 286845
Fragmentation average = 1.6444
	minimum = 0
	maximum = 50
Injected packet rate average = 0.00204082
	minimum = 0 (at node 0)
	maximum = 0.0959833 (at node 127)
Accepted packet rate average = 0.00204049
	minimum = 0 (at node 30)
	maximum = 0.0307917 (at node 31)
Injected flit rate average = 0.0139294
	minimum = 0 (at node 0)
	maximum = 0.711325 (at node 127)
Accepted flit rate average= 0.0139285
	minimum = 0 (at node 30)
	maximum = 0.101042 (at node 14)
Injected packet length average = 6.82541
Accepted packet length average = 6.82603
Total in-flight flits = 149 (149 measured)
latency change    = 0.160818
throughput change = 0.00139836
Draining remaining packets ...
Time taken is 150055 cycles
====== Overall Traffic Statistics ======
====== Traffic class 0 ======
Packet latency average = 2068.35 (1 samples)
	minimum = 13 (1 samples)
	maximum = 18239 (1 samples)
Network latency average = 43.9035 (1 samples)
	minimum = 13 (1 samples)
	maximum = 364 (1 samples)
Flit latency average = 40.4409 (1 samples)
	minimum = 9 (1 samples)
	maximum = 311 (1 samples)
Fragmentation average = 1.64418 (1 samples)
	minimum = 0 (1 samples)
	maximum = 50 (1 samples)
Injected packet rate average = 0.00204082 (1 samples)
	minimum = 0 (1 samples)
	maximum = 0.0959833 (1 samples)
Accepted packet rate average = 0.00204049 (1 samples)
	minimum = 0 (1 samples)
	maximum = 0.0307917 (1 samples)
Injected flit rate average = 0.0139294 (1 samples)
	minimum = 0 (1 samples)
	maximum = 0.711325 (1 samples)
Accepted flit rate average = 0.0139285 (1 samples)
	minimum = 0 (1 samples)
	maximum = 0.101042 (1 samples)
Injected packet size average = 6.82541 (1 samples)
Accepted packet size average = 6.82603 (1 samples)
Hops average = 6.51195 (1 samples)
Total run time 67.2118
BEGIN Configuration File: examples/focusconfig
topology = mesh;
k = 16;
n = 2;

sim_type = throughput;

packet_size = 1;
warmup_periods = 1;
sample_period = 30000;
max_samples = 20;

burst_alpha = 0.5;
burst_beta = -1.0;

// Routing

routing_function = dim_order;
// routing_function = min_adapt;
// routing_function = xy_yx;
// routing_function = romm;


// Flow control
num_vcs = 2;
vc_buf_size = 4;

// Traffic
traffic = focus;
injection_process = focus;

END Configuration File: examples/focusconfig
Warning: injection kernel is renewed
Warning: injection kernel is renewed
Class 0:
Packet latency average = 320.654
	minimum = 13
	maximum = 3141
Network latency average = 41.1182
	minimum = 13
	maximum = 332
Slowest packet = 10
Flit latency average = 38.1296
	minimum = 9
	maximum = 294
Slowest flit = 60668
Fragmentation average = 1.45764
	minimum = 0
	maximum = 41
Injected packet rate average = 0.00230039
	minimum = 0 (at node 0)
	maximum = 0.0976 (at node 127)
Accepted packet rate average = 0.00229779
	minimum = 0 (at node 30)
	maximum = 0.0304333 (at node 31)
Injected flit rate average = 0.0144048
	minimum = 0 (at node 0)
	maximum = 0.710033 (at node 127)
Accepted flit rate average= 0.0143938
	minimum = 0 (at node 30)
	maximum = 0.100667 (at node 12)
Injected packet length average = 6.2619
Accepted packet length average = 6.26418
Total in-flight flits = 92 (0 measured)
latency change    = 1
throughput change = 1
Warmed up ...Time used is 30000 cycles
Class 0:
Packet latency average = 920.272
	minimum = 13
	maximum = 6187
Network latency average = 42.9441
	minimum = 13
	maximum = 301
Slowest packet = 17670
Flit latency average = 40.1062
	minimum = 9
	maximum = 255
Slowest flit = 124502
Fragmentation average = 1.46566
	minimum = 0
	maximum = 41
Injected packet rate average = 0.00206536
	minimum = 0 (at node 0)
	maximum = 0.0983 (at node 127)
Accepted packet rate average = 0.00206315
	minimum = 0 (at node 30)
	maximum = 0.0307667 (at node 31)
Injected flit rate average = 0.0132374
	minimum = 0 (at node 0)
	maximum = 0.714133 (at node 127)
Accepted flit rate average= 0.0132307
	minimum = 0 (at node 30)
	maximum = 0.101 (at node 12)
Injected packet length average = 6.40922
Accepted packet length average = 6.41287
Total in-flight flits = 142 (142 measured)
latency change    = 0.651566
throughput change = 0.087903
Class 0:
Packet latency average = 1203.64
	minimum = 13
	maximum = 9155
Network latency average = 42.9512
	minimum = 13
	maximum = 301
Slowest packet = 17670
Flit latency average = 40.1321
	minimum = 9
	maximum = 255
Slowest flit = 124502
Fragmentation average = 1.44995
	minimum = 0
	maximum = 41
Injected packet rate average = 0.00205788
	minimum = 0 (at node 0)
	maximum = 0.0981667 (at node 127)
Accepted packet rate average = 0.00205768
	minimum = 0 (at node 30)
	maximum = 0.0307833 (at node 31)
Injected flit rate average = 0.0131736
	minimum = 0 (at node 0)
	maximum = 0.714167 (at node 127)
Accepted flit rate average= 0.0131704
	minimum = 0 (at node 30)
	maximum = 0.101 (at node 12)
Injected packet length average = 6.40153
Accepted packet length average = 6.40059
Total in-flight flits = 194 (194 measured)
latency change    = 0.235428
throughput change = 0.00458237
Class 0:
Packet latency average = 1490.38
	minimum = 13
	maximum = 12303
Network latency average = 42.9351
	minimum = 13
	maximum = 301
Slowest packet = 17670
Flit latency average = 40.1135
	minimum = 9
	maximum = 255
Slowest flit = 124502
Fragmentation average = 1.44948
	minimum = 0
	maximum = 41
Injected packet rate average = 0.00205234
	minimum = 0 (at node 0)
	maximum = 0.0981556 (at node 127)
Accepted packet rate average = 0.00205061
	minimum = 0 (at node 30)
	maximum = 0.0307889 (at node 31)
Injected flit rate average = 0.0131428
	minimum = 0 (at node 0)
	maximum = 0.714278 (at node 127)
Accepted flit rate average= 0.0131308
	minimum = 0 (at node 30)
	maximum = 0.100956 (at node 29)
Injected packet length average = 6.4038
Accepted packet length average = 6.40336
Total in-flight flits = 498 (498 measured)
latency change    = 0.192391
throughput change = 0.0030162
Class 0:
Packet latency average = 1777.91
	minimum = 13
	maximum = 15323
Network latency average = 43.0026
	minimum = 13
	maximum = 301
Slowest packet = 17670
Flit latency average = 40.1641
	minimum = 9
	maximum = 255
Slowest flit = 124502
Fragmentation average = 1.4573
	minimum = 0
	maximum = 42
Injected packet rate average = 0.00204932
	minimum = 0 (at node 0)
	maximum = 0.098175 (at node 127)
Accepted packet rate average = 0.00204896
	minimum = 0 (at node 30)
	maximum = 0.0307917 (at node 31)
Injected flit rate average = 0.0131147
	minimum = 0 (at node 0)
	maximum = 0.714317 (at node 127)
Accepted flit rate average= 0.013113
	minimum = 0 (at node 30)
	maximum = 0.101 (at node 12)
Injected packet length average = 6.39957
Accepted packet length average = 6.39982
Total in-flight flits = 144 (144 measured)
latency change    = 0.161726
throughput change = 0.00135872
Draining remaining packets ...
Time taken is 150055 cycles
====== Overall Traffic Statistics ======
====== Traffic class 0 ======
Packet latency average = 1778.51 (1 samples)
	minimum = 13 (1 samples)
	maximum = 15323 (1 samples)
Network latency average = 43 (1 samples)
	minimum = 13 (1 samples)
	maximum = 301 (1 samples)
Flit latency average = 40.1622 (1 samples)
	minimum = 9 (1 samples)
	maximum = 255 (1 samples)
Fragmentation average = 1.45723 (1 samples)
	minimum = 0 (1 samples)
	maximum = 42 (1 samples)
Injected packet rate average = 0.00204932 (1 samples)
	minimum = 0 (1 samples)
	maximum = 0.098175 (1 samples)
Accepted packet rate average = 0.00204896 (1 samples)
	minimum = 0 (1 samples)
	maximum = 0.0307917 (1 samples)
Injected flit rate average = 0.0131147 (1 samples)
	minimum = 0 (1 samples)
	maximum = 0.714317 (1 samples)
Accepted flit rate average = 0.013113 (1 samples)
	minimum = 0 (1 samples)
	maximum = 0.101 (1 samples)
Injected packet size average = 6.39957 (1 samples)
Accepted packet size average = 6.39982 (1 samples)
Hops average = 6.50836 (1 samples)
Total run time 65.805
 vgg16_layer3
====================== FINISH =========================


Info: Working for vgg16_layer4
====================== FINISH =========================


Info: Working for mnasnet_layer1
====================== FINISH =========================


Info: Working for mnasnet_layer2
====================== FINISH =========================


Info: Working for mnasnet_layer3
====================== FINISH =========================


Info: Working for mnasnet_layer4
====================== FINISH =========================


Info: Working for inception_layer1
====================== FINISH =========================


Info: Working for inception_layer2
====================== FINISH =========================


Info: Working for inception_layer3
====================== FINISH =========================


Info: Working for inception_layer4
====================== FINISH =========================


Info: Working for inception_layer5
====================== FINISH =========================


Info: Working for inception_layer6
====================== FINISH =========================


Info: Working for inception_layer7
====================== FINISH =========================


Info: Working for inception_layer8
====================== FINISH =========================


[[16 16 16 16 19 19 19 19  0  0  1  1  2  2  2  2]
 [16 16 16 16 19 19 19 19  0  0  1  1  2  2  2  2]
 [16 16 16 16 19 19 19 19  0  0  1  1  3  3  3  3]
 [16 16 16 16 19 19 19 19  0  0  1  1  3  3  3  3]
 [17 17 17 17 18 18 18 18  7  7  6  6  4  4  4  4]
 [17 17 17 17 18 18 18 18  7  7  6  6  4  4  4  4]
 [17 17 17 17 18 18 18 18  7  7  6  6  5  5  5  5]
 [17 17 17 17 18 18 18 18  7  7  6  6  5  5  5  5]
 [26 26 25 25 23 23 22 22  8  8  9  9 10 10 10 10]
 [26 26 25 25 23 23 22 22  8  8  9  9 10 10 10 10]
 [27 27 24 24 23 23 22 22  8  8  9  9 11 11 11 11]
 [27 27 24 24 23 23 22 22  8  8  9  9 11 11 11 11]
 [28 28 29 29 21 21 21 21 15 15 14 14 12 12 12 12]
 [28 28 29 29 21 21 21 21 15 15 14 14 12 12 12 12]
 [31 31 30 30 20 20 20 20 15 15 14 14 13 13 13 13]
 [31 31 30 30 20 20 20 20 15 15 14 14 13 13 13 13]]
Info: Working for unet_layer1
====================== FINISH =========================


Info: Working for unet_layer2
====================== FINISH =========================


Info: Working for unet_layer3
====================== FINISH =========================


Info: Working for unet_layer4
====================== FINISH =========================


Info: Working for unet_layer5
====================== FINISH =========================


Info: Working for unet_layer6
====================== FINISH =========================


Info: Working for unet_layer7
====================== FINISH =========================


Info: Working for unet_layer8
====================== FINISH =========================


Info: Working for unet_layer9
====================== FINISH =========================


Info: Working for unet_layer10
====================== FINISH =========================


Info: Working for unet_layer11
====================== FINISH =========================


Info: Working for unet_layer12
====================== FINISH =========================


Info: Working for unet_layer13
====================== FINISH =========================


Info: Working for unet_layer14
====================== FINISH =========================


Info: Working for unet_layer15
====================== FINISH =========================


Info: Working for unet_layer16
====================== FINISH =========================


Info: Working for vgg16_layer1
====================== FINISH =========================


Info: Working for vgg16_layer2
====================== FINISH =========================


Info: Working for vgg16_layer3
====================== FINISH =========================


Info: Working for vgg16_layer4
====================== FINISH =========================


Info: Working for mnasnet_layer1
====================== FINISH =========================


Info: Working for mnasnet_layer2
====================== FINISH =========================


Info: Working for mnasnet_layer3
====================== FINISH =========================


Info: Working for mnasnet_layer4
====================== FINISH =========================


Info: Working for inception_layer1
====================== FINISH =========================


Info: Working for inception_layer2
====================== FINISH =========================


Info: Working for inception_layer3
====================== FINISH =========================


Info: Working for inception_layer4
====================== FINISH =========================


Info: Working for inception_layer5
====================== FINISH =========================


Info: Working for inception_layer6
====================== FINISH =========================


Info: Working for inception_layer7
====================== FINISH =========================


Info: Working for inception_layer8
====================== FINISH =========================


[[16 16 16 16 19 19 19 19  0  0  1  1  2  2  2  2]
 [16 16 16 16 19 19 19 19  0  0  1  1  2  2  2  2]
 [16 16 16 16 19 19 19 19  0  0  1  1  3  3  3  3]
 [16 16 16 16 19 19 19 19  0  0  1  1  3  3  3  3]
 [17 17 17 17 18 18 18 18  7  7  6  6  4  4  4  4]
 [17 17 17 17 18 18 18 18  7  7  6  6  4  4  4  4]
 [17 17 17 17 18 18 18 18  7  7  6  6  5  5  5  5]
 [17 17 17 17 18 18 18 18  7  7  6  6  5  5  5  5]
 [26 26 25 25 23 23 22 22  8  8  9  9 10 10 10 10]
 [26 26 25 25 23 23 22 22  8  8  9  9 10 10 10 10]
 [27 27 24 24 23 23 22 22  8  8  9  9 11 11 11 11]
 [27 27 24 24 23 23 22 22  8  8  9  9 11 11 11 11]
 [28 28 29 29 21 21 21 21 15 15 14 14 12 12 12 12]
 [28 28 29 29 21 21 21 21 15 15 14 14 12 12 12 12]
 [31 31 30 30 20 20 20 20 15 15 14 14 13 13 13 13]
 [31 31 30 30 20 20 20 20 15 15 14 14 13 13 13 13]]
Info: Working for unet_layer1
====================== FINISH =========================


Info: Working for unet_layer2
====================== FINISH =========================


Info: Working for unet_layer3
====================== FINISH =========================


Info: Working for unet_layer4
====================== FINISH =========================


Info: Working for unet_layer5
====================== FINISH =========================


Info: Working for unet_layer6
====================== FINISH =========================


Info: Working for unet_layer7
====================== FINISH =========================


Info: Working for unet_layer8
====================== FINISH =========================


Info: Working for unet_layer9
====================== FINISH =========================


Info: Working for unet_layer10
====================== FINISH =========================


Info: Working for unet_layer11
====================== FINISH =========================


Info: Working for unet_layer12
====================== FINISH =========================


Info: Working for unet_layer13
====================== FINISH =========================


Info: Working for unet_layer14
====================== FINISH =========================


Info: Working for unet_layer15
====================== FINISH =========================


Info: Working for unet_layer16
====================== FINISH =========================


Info: Working for vgg16_layer1
====================== FINISH =========================


Info: Working for vgg16_layer2
====================== FINISH =========================


Info: Working for vgg16_layer3
====================== FINISH =========================


Info: Working for vgg16_layer4
====================== FINISH =========================


Info: Working for mnasnet_layer1
====================== FINISH =========================


Info: Working for mnasnet_layer2
====================== FINISH =========================


Info: Working for mnasnet_layer3
====================== FINISH =========================


Info: Working for mnasnet_layer4
====================== FINISH =========================


Info: Working for inception_layer1
====================== FINISH =========================


Info: Working for inception_layer2
====================== FINISH =========================


Info: Working for inception_layer3
====================== FINISH =========================

BEGIN Configuration File: examples/focusconfig
topology = mesh;
k = 16;
n = 2;

sim_type = throughput;

packet_size = 1;
warmup_periods = 1;
sample_period = 30000;
max_samples = 20;

burst_alpha = 0.5;
burst_beta = -1.0;

// Routing

routing_function = dim_order;
// routing_function = min_adapt;
// routing_function = xy_yx;
// routing_function = romm;


// Flow control
num_vcs = 2;
vc_buf_size = 4;

// Traffic
traffic = focus;
injection_process = focus;

END Configuration File: examples/focusconfig
Warning: injection kernel is renewed
Warning: injection kernel is renewed
Class 0:
Packet latency average = 81.2376
	minimum = 13
	maximum = 1214
Network latency average = 39.6343
	minimum = 13
	maximum = 214
Slowest packet = 3
Flit latency average = 37.7127
	minimum = 9
	maximum = 150
Slowest flit = 33929
Fragmentation average = 1.12148
	minimum = 0
	maximum = 35
Injected packet rate average = 0.00234271
	minimum = 0 (at node 0)
	maximum = 0.108367 (at node 127)
Accepted packet rate average = 0.00233984
	minimum = 0 (at node 30)
	maximum = 0.0304333 (at node 31)
Injected flit rate average = 0.0129012
	minimum = 0 (at node 0)
	maximum = 0.668733 (at node 127)
Accepted flit rate average= 0.01289
	minimum = 0 (at node 30)
	maximum = 0.0906 (at node 12)
Injected packet length average = 5.50695
Accepted packet length average = 5.5089
Total in-flight flits = 94 (0 measured)
latency change    = 1
throughput change = 1
Warmed up ...Time used is 30000 cycles
Class 0:
Packet latency average = 84.4793
	minimum = 13
	maximum = 1168
Network latency average = 41.4097
	minimum = 13
	maximum = 256
Slowest packet = 17995
Flit latency average = 39.8063
	minimum = 9
	maximum = 202
Slowest flit = 166876
Fragmentation average = 1.11414
	minimum = 0
	maximum = 35
Injected packet rate average = 0.00210794
	minimum = 0 (at node 0)
	maximum = 0.109233 (at node 127)
Accepted packet rate average = 0.00210651
	minimum = 0 (at node 30)
	maximum = 0.0307667 (at node 31)
Injected flit rate average = 0.0118108
	minimum = 0 (at node 0)
	maximum = 0.675333 (at node 127)
Accepted flit rate average= 0.0118079
	minimum = 0 (at node 30)
	maximum = 0.0934333 (at node 143)
Injected packet length average = 5.603
Accepted packet length average = 5.60545
Total in-flight flits = 118 (118 measured)
latency change    = 0.0383735
throughput change = 0.0916359
Class 0:
Packet latency average = 83.0363
	minimum = 13
	maximum = 1168
Network latency average = 41.442
	minimum = 13
	maximum = 256
Slowest packet = 17995
Flit latency average = 39.864
	minimum = 9
	maximum = 204
Slowest flit = 277844
Fragmentation average = 1.10716
	minimum = 0
	maximum = 35
Injected packet rate average = 0.00210137
	minimum = 0 (at node 0)
	maximum = 0.1093 (at node 127)
Accepted packet rate average = 0.00210111
	minimum = 0 (at node 30)
	maximum = 0.0307833 (at node 31)
Injected flit rate average = 0.011757
	minimum = 0 (at node 0)
	maximum = 0.675617 (at node 127)
Accepted flit rate average= 0.0117548
	minimum = 0 (at node 30)
	maximum = 0.0933333 (at node 143)
Injected packet length average = 5.59494
Accepted packet length average = 5.59458
Total in-flight flits = 134 (134 measured)
latency change    = 0.0173778
throughput change = 0.00451942
Class 0:
Packet latency average = 82.2453
	minimum = 13
	maximum = 1168
Network latency average = 41.3675
	minimum = 13
	maximum = 256
Slowest packet = 17995
Flit latency average = 39.8035
	minimum = 9
	maximum = 204
Slowest flit = 277844
Fragmentation average = 1.10198
	minimum = 0
	maximum = 35
Injected packet rate average = 0.00209605
	minimum = 0 (at node 0)
	maximum = 0.109289 (at node 127)
Accepted packet rate average = 0.00209449
	minimum = 0 (at node 30)
	maximum = 0.0307889 (at node 31)
Injected flit rate average = 0.0117299
	minimum = 0 (at node 0)
	maximum = 0.675633 (at node 127)
Accepted flit rate average= 0.0117202
	minimum = 0 (at node 30)
	maximum = 0.0931333 (at node 143)
Injected packet length average = 5.59619
Accepted packet length average = 5.59573
Total in-flight flits = 492 (492 measured)
latency change    = 0.00961756
throughput change = 0.00295519
Class 0:
Packet latency average = 82.1766
	minimum = 13
	maximum = 1168
Network latency average = 41.396
	minimum = 13
	maximum = 256
Slowest packet = 17995
Flit latency average = 39.8242
	minimum = 9
	maximum = 204
Slowest flit = 277844
Fragmentation average = 1.10727
	minimum = 0
	maximum = 36
Injected packet rate average = 0.00209229
	minimum = 0 (at node 0)
	maximum = 0.109183 (at node 127)
Accepted packet rate average = 0.00209215
	minimum = 0 (at node 30)
	maximum = 0.0307917 (at node 31)
Injected flit rate average = 0.0117009
	minimum = 0 (at node 0)
	maximum = 0.67535 (at node 127)
Accepted flit rate average= 0.0117007
	minimum = 0 (at node 30)
	maximum = 0.0927 (at node 143)
Injected packet length average = 5.59242
Accepted packet length average = 5.59268
Total in-flight flits = 95 (95 measured)
latency change    = 0.000836
throughput change = 0.00166088
Draining remaining packets ...
Time taken is 150055 cycles
====== Overall Traffic Statistics ======
====== Traffic class 0 ======
Packet latency average = 82.1647 (1 samples)
	minimum = 13 (1 samples)
	maximum = 1168 (1 samples)
Network latency average = 41.3954 (1 samples)
	minimum = 13 (1 samples)
	maximum = 256 (1 samples)
Flit latency average = 39.8242 (1 samples)
	minimum = 9 (1 samples)
	maximum = 204 (1 samples)
Fragmentation average = 1.10702 (1 samples)
	minimum = 0 (1 samples)
	maximum = 36 (1 samples)
Injected packet rate average = 0.00209229 (1 samples)
	minimum = 0 (1 samples)
	maximum = 0.109183 (1 samples)
Accepted packet rate average = 0.00209215 (1 samples)
	minimum = 0 (1 samples)
	maximum = 0.0307917 (1 samples)
Injected flit rate average = 0.0117009 (1 samples)
	minimum = 0 (1 samples)
	maximum = 0.67535 (1 samples)
Accepted flit rate average = 0.0117007 (1 samples)
	minimum = 0 (1 samples)
	maximum = 0.0927 (1 samples)
Injected packet size average = 5.59242 (1 samples)
Accepted packet size average = 5.59268 (1 samples)
Hops average = 6.4928 (1 samples)
Total run time 63.758
BEGIN Configuration File: examples/focusconfig
topology = mesh;
k = 16;
n = 2;

sim_type = throughput;

packet_size = 1;
warmup_periods = 1;
sample_period = 30000;
max_samples = 20;

burst_alpha = 0.5;
burst_beta = -1.0;

// Routing

routing_function = dim_order;
// routing_function = min_adapt;
// routing_function = xy_yx;
// routing_function = romm;


// Flow control
num_vcs = 2;
vc_buf_size = 4;

// Traffic
traffic = focus;
injection_process = focus;

END Configuration File: examples/focusconfig
Warning: injection kernel is renewed
Warning: injection kernel is renewed
Class 0:
Packet latency average = 77.0489
	minimum = 13
	maximum = 1068
Network latency average = 39.1534
	minimum = 13
	maximum = 192
Slowest packet = 3
Flit latency average = 37.6327
	minimum = 9
	maximum = 132
Slowest flit = 31959
Fragmentation average = 1.03784
	minimum = 0
	maximum = 31
Injected packet rate average = 0.00234284
	minimum = 0 (at node 0)
	maximum = 0.108367 (at node 127)
Accepted packet rate average = 0.00233984
	minimum = 0 (at node 30)
	maximum = 0.0304333 (at node 31)
Injected flit rate average = 0.0122743
	minimum = 0 (at node 0)
	maximum = 0.662067 (at node 127)
Accepted flit rate average= 0.012263
	minimum = 0 (at node 30)
	maximum = 0.0906 (at node 12)
Injected packet length average = 5.23909
Accepted packet length average = 5.24096
Total in-flight flits = 93 (0 measured)
latency change    = 1
throughput change = 1
Warmed up ...Time used is 30000 cycles
Class 0:
Packet latency average = 80.1794
	minimum = 13
	maximum = 1040
Network latency average = 40.9751
	minimum = 13
	maximum = 235
Slowest packet = 17996
Flit latency average = 39.5828
	minimum = 9
	maximum = 186
Slowest flit = 123743
Fragmentation average = 1.03275
	minimum = 0
	maximum = 31
Injected packet rate average = 0.00210794
	minimum = 0 (at node 0)
	maximum = 0.109233 (at node 127)
Accepted packet rate average = 0.00210651
	minimum = 0 (at node 30)
	maximum = 0.0307667 (at node 31)
Injected flit rate average = 0.0113168
	minimum = 0 (at node 0)
	maximum = 0.6684 (at node 127)
Accepted flit rate average= 0.0113141
	minimum = 0 (at node 30)
	maximum = 0.0931667 (at node 143)
Injected packet length average = 5.36865
Accepted packet length average = 5.371
Total in-flight flits = 115 (115 measured)
latency change    = 0.0390441
throughput change = 0.0838742
Class 0:
Packet latency average = 78.7034
	minimum = 13
	maximum = 1040
Network latency average = 41.0045
	minimum = 13
	maximum = 252
Slowest packet = 17996
Flit latency average = 39.647
	minimum = 9
	maximum = 221
Slowest flit = 212519
Fragmentation average = 1.02859
	minimum = 0
	maximum = 31
Injected packet rate average = 0.0021013
	minimum = 0 (at node 0)
	maximum = 0.1093 (at node 127)
Accepted packet rate average = 0.00210111
	minimum = 0 (at node 30)
	maximum = 0.0307833 (at node 31)
Injected flit rate average = 0.0112677
	minimum = 0 (at node 0)
	maximum = 0.668683 (at node 127)
Accepted flit rate average= 0.0112654
	minimum = 0 (at node 30)
	maximum = 0.0930667 (at node 143)
Injected packet length average = 5.36225
Accepted packet length average = 5.36166
Total in-flight flits = 126 (126 measured)
latency change    = 0.018754
throughput change = 0.004317
Class 0:
Packet latency average = 77.9916
	minimum = 13
	maximum = 1040
Network latency average = 40.9428
	minimum = 13
	maximum = 252
Slowest packet = 17996
Flit latency average = 39.5961
	minimum = 9
	maximum = 221
Slowest flit = 212519
Fragmentation average = 1.02581
	minimum = 0
	maximum = 31
Injected packet rate average = 0.00209614
	minimum = 0 (at node 0)
	maximum = 0.109289 (at node 127)
Accepted packet rate average = 0.00209484
	minimum = 0 (at node 30)
	maximum = 0.0307889 (at node 31)
Injected flit rate average = 0.011243
	minimum = 0 (at node 0)
	maximum = 0.6687 (at node 127)
Accepted flit rate average= 0.0112343
	minimum = 0 (at node 30)
	maximum = 0.0929222 (at node 143)
Injected packet length average = 5.36368
Accepted packet length average = 5.36285
Total in-flight flits = 420 (420 measured)
latency change    = 0.00912763
throughput change = 0.002772
Class 0:
Packet latency average = 77.8838
	minimum = 13
	maximum = 1040
Network latency average = 40.9649
	minimum = 13
	maximum = 252
Slowest packet = 17996
Flit latency average = 39.614
	minimum = 9
	maximum = 221
Slowest flit = 212519
Fragmentation average = 1.02817
	minimum = 0
	maximum = 31
Injected packet rate average = 0.00209229
	minimum = 0 (at node 0)
	maximum = 0.109183 (at node 127)
Accepted packet rate average = 0.00209222
	minimum = 0 (at node 30)
	maximum = 0.0307917 (at node 31)
Injected flit rate average = 0.0112145
	minimum = 0 (at node 0)
	maximum = 0.668417 (at node 127)
Accepted flit rate average= 0.0112145
	minimum = 0 (at node 30)
	maximum = 0.0925 (at node 143)
Injected packet length average = 5.35994
Accepted packet length average = 5.3601
Total in-flight flits = 89 (89 measured)
latency change    = 0.00138307
throughput change = 0.00176289
Draining remaining packets ...
Time taken is 150055 cycles
====== Overall Traffic Statistics ======
====== Traffic class 0 ======
Packet latency average = 77.8738 (1 samples)
	minimum = 13 (1 samples)
	maximum = 1040 (1 samples)
Network latency average = 40.9642 (1 samples)
	minimum = 13 (1 samples)
	maximum = 252 (1 samples)
Flit latency average = 39.6142 (1 samples)
	minimum = 9 (1 samples)
	maximum = 221 (1 samples)
Fragmentation average = 1.02797 (1 samples)
	minimum = 0 (1 samples)
	maximum = 31 (1 samples)
Injected packet rate average = 0.00209229 (1 samples)
	minimum = 0 (1 samples)
	maximum = 0.109183 (1 samples)
Accepted packet rate average = 0.00209222 (1 samples)
	minimum = 0 (1 samples)
	maximum = 0.0307917 (1 samples)
Injected flit rate average = 0.0112145 (1 samples)
	minimum = 0 (1 samples)
	maximum = 0.668417 (1 samples)
Accepted flit rate average = 0.0112145 (1 samples)
	minimum = 0 (1 samples)
	maximum = 0.0925 (1 samples)
Injected packet size average = 5.35994 (1 samples)
Accepted packet size average = 5.3601 (1 samples)
Hops average = 6.49282 (1 samples)
Total run time 63.9913

Info: Working for inception_layer4
====================== FINISH =========================


Info: Working for inception_layer5
====================== FINISH =========================


Info: Working for inception_layer6
====================== FINISH =========================


Info: Working for inception_layer7
====================== FINISH =========================


Info: Working for inception_layer8
====================== FINISH =========================


[[16 16 16 16 19 19 19 19  0  0  1  1  2  2  2  2]
 [16 16 16 16 19 19 19 19  0  0  1  1  2  2  2  2]
 [16 16 16 16 19 19 19 19  0  0  1  1  3  3  3  3]
 [16 16 16 16 19 19 19 19  0  0  1  1  3  3  3  3]
 [17 17 17 17 18 18 18 18  7  7  6  6  4  4  4  4]
 [17 17 17 17 18 18 18 18  7  7  6  6  4  4  4  4]
 [17 17 17 17 18 18 18 18  7  7  6  6  5  5  5  5]
 [17 17 17 17 18 18 18 18  7  7  6  6  5  5  5  5]
 [26 26 25 25 23 23 22 22  8  8  9  9 10 10 10 10]
 [26 26 25 25 23 23 22 22  8  8  9  9 10 10 10 10]
 [27 27 24 24 23 23 22 22  8  8  9  9 11 11 11 11]
 [27 27 24 24 23 23 22 22  8  8  9  9 11 11 11 11]
 [28 28 29 29 21 21 21 21 15 15 14 14 12 12 12 12]
 [28 28 29 29 21 21 21 21 15 15 14 14 12 12 12 12]
 [31 31 30 30 20 20 20 20 15 15 14 14 13 13 13 13]
 [31 31 30 30 20 20 20 20 15 15 14 14 13 13 13 13]]
Info: Working for unet_layer1
====================== FINISH =========================


Info: Working for unet_layer2
====================== FINISH =========================


Info: Working for unet_layer3
====================== FINISH =========================


Info: Working for unet_layer4
====================== FINISH =========================


Info: Working for unet_layer5
====================== FINISH =========================


Info: Working for unet_layer6
====================== FINISH =========================


Info: Working for unet_layer7
====================== FINISH =========================


Info: Working for unet_layer8
====================== FINISH =========================


Info: Working for unet_layer9
====================== FINISH =========================


Info: Working for unet_layer10
====================== FINISH =========================


Info: Working for unet_layer11
====================== FINISH =========================


Info: Working for unet_layer12
====================== FINISH =========================


Info: Working for unet_layer13
====================== FINISH =========================


Info: Working for unet_layer14
====================== FINISH =========================


Info: Working for unet_layer15
====================== FINISH =========================


Info: Working for unet_layer16
====================== FINISH =========================


Info: Working for vgg16_layer1
====================== FINISH =========================


Info: Working for vgg16_layer2
====================== FINISH =========================


Info: Working for vgg16_layer3
====================== FINISH =========================


Info: Working for vgg16_layer4
====================== FINISH =========================


Info: Working for mnasnet_layer1
====================== FINISH =========================


Info: Working for mnasnet_layer2
====================== FINISH =========================


Info: Working for mnasnet_layer3
====================== FINISH =========================


Info: Working for mnasnet_layer4
====================== FINISH =========================


Info: Working for inception_layer1
====================== FINISH =========================


Info: Working for inception_layer2
====================== FINISH =========================


Info: Working for inception_layer3
====================== FINISH =========================


Info: Working for inception_layer4
====================== FINISH =========================


Info: Working for inception_layer5
====================== FINISH =========================


Info: Working for inception_layer6
====================== FINISH =========================


Info: Working for inception_layer7
====================== FINISH =========================


Info: Working for inception_layer8
====================== FINISH =========================


[[16 16 16 16 19 19 19 19  0  0  1  1  2  2  2  2]
 [16 16 16 16 19 19 19 19  0  0  1  1  2  2  2  2]
 [16 16 16 16 19 19 19 19  0  0  1  1  3  3  3  3]
 [16 16 16 16 19 19 19 19  0  0  1  1  3  3  3  3]
 [17 17 17 17 18 18 18 18  7  7  6  6  4  4  4  4]
 [17 17 17 17 18 18 18 18  7  7  6  6  4  4  4  4]
 [17 17 17 17 18 18 18 18  7  7  6  6  5  5  5  5]
 [17 17 17 17 18 18 18 18  7  7  6  6  5  5  5  5]
 [26 26 25 25 23 23 22 22  8  8  9  9 10 10 10 10]
 [26 26 25 25 23 23 22 22  8  8  9  9 10 10 10 10]
 [27 27 24 24 23 23 22 22  8  8  9  9 11 11 11 11]
 [27 27 24 24 23 23 22 22  8  8  9  9 11 11 11 11]
 [28 28 29 29 21 21 21 21 15 15 14 14 12 12 12 12]
 [28 28 29 29 21 21 21 21 15 15 14 14 12 12 12 12]
 [31 31 30 30 20 20 20 20 15 15 14 14 13 13 13 13]
 [31 31 30 30 20 20 20 20 15 15 14 14 13 13 13 13]]
