BEGIN Configuration File: examples/focusconfig
topology = mesh;
k = 16;
n = 2;

sim_type = throughput;

packet_size = 1;
warmup_periods = 1;
sample_period = 10000;
max_samples = 5;

burst_alpha = 0.5;
burst_beta = -1.0;

// Routing

routing_function = dim_order;
// routing_function = min_adapt;
// routing_function = xy_yx;
// routing_function = romm;


// Flow control
num_vcs = 2;
vc_buf_size = 4;

// Traffic
traffic = focus;
injection_process = focus;

END Configuration File: examples/focusconfig
Warning: injection kernel is renewed
Warning: injection kernel is renewed
Class 0:
Packet latency average = 888.695
	minimum = 32
	maximum = 6240
Network latency average = 70.1847
	minimum = 19
	maximum = 376
Slowest packet = 0
Flit latency average = 27.3024
	minimum = 6
	maximum = 256
Slowest flit = 49375
Fragmentation average = 9.5958
	minimum = 2
	maximum = 161
Injected packet rate average = 0.00108633
	minimum = 0 (at node 0)
	maximum = 0.0521 (at node 8)
Accepted packet rate average = 0.00107852
	minimum = 0 (at node 50)
	maximum = 0.0065 (at node 63)
Injected flit rate average = 0.0314738
	minimum = 0 (at node 0)
	maximum = 0.6676 (at node 247)
Accepted flit rate average= 0.0313746
	minimum = 0 (at node 50)
	maximum = 0.4113 (at node 215)
Injected packet length average = 28.9727
Accepted packet length average = 29.0905
Total in-flight flits = 845 (0 measured)
latency change    = 1
throughput change = 1
Warmed up ...Time used is 10000 cycles
Class 0:
Packet latency average = 3133.17
	minimum = 32
	maximum = 12489
Network latency average = 85.3138
	minimum = 19
	maximum = 380
Slowest packet = 2781
Flit latency average = 28.1229
	minimum = 6
	maximum = 166
Slowest flit = 118190
Fragmentation average = 13.4689
	minimum = 2
	maximum = 162
Injected packet rate average = 0.000664844
	minimum = 0 (at node 0)
	maximum = 0.0381 (at node 179)
Accepted packet rate average = 0.000667578
	minimum = 0 (at node 12)
	maximum = 0.0064 (at node 128)
Injected flit rate average = 0.0268805
	minimum = 0 (at node 0)
	maximum = 0.7138 (at node 247)
Accepted flit rate average= 0.0269125
	minimum = 0 (at node 12)
	maximum = 0.2667 (at node 215)
Injected packet length average = 40.4313
Accepted packet length average = 40.3136
Total in-flight flits = 838 (838 measured)
latency change    = 0.716359
throughput change = 0.165801
Class 0:
Packet latency average = 4093.15
	minimum = 13
	maximum = 18775
Network latency average = 84.7107
	minimum = 13
	maximum = 380
Slowest packet = 2781
Flit latency average = 28.3642
	minimum = 6
	maximum = 166
Slowest flit = 118190
Fragmentation average = 13.2285
	minimum = 0
	maximum = 162
Injected packet rate average = 0.000665234
	minimum = 0 (at node 0)
	maximum = 0.038 (at node 179)
Accepted packet rate average = 0.000665625
	minimum = 0 (at node 12)
	maximum = 0.0064 (at node 128)
Injected flit rate average = 0.0266326
	minimum = 0 (at node 0)
	maximum = 0.70795 (at node 247)
Accepted flit rate average= 0.0266402
	minimum = 0 (at node 12)
	maximum = 0.15675 (at node 7)
Injected packet length average = 40.0349
Accepted packet length average = 40.0229
Total in-flight flits = 580 (580 measured)
latency change    = 0.234534
throughput change = 0.0102201
Class 0:
Packet latency average = 4996.41
	minimum = 13
	maximum = 25058
Network latency average = 84.6156
	minimum = 13
	maximum = 380
Slowest packet = 2781
Flit latency average = 28.4368
	minimum = 6
	maximum = 166
Slowest flit = 118190
Fragmentation average = 13.182
	minimum = 0
	maximum = 162
Injected packet rate average = 0.000660677
	minimum = 0 (at node 0)
	maximum = 0.038 (at node 179)
Accepted packet rate average = 0.000662109
	minimum = 0 (at node 12)
	maximum = 0.00636667 (at node 128)
Injected flit rate average = 0.026553
	minimum = 0 (at node 0)
	maximum = 0.710767 (at node 247)
Accepted flit rate average= 0.0265723
	minimum = 0 (at node 12)
	maximum = 0.1419 (at node 7)
Injected packet length average = 40.1906
Accepted packet length average = 40.1327
Total in-flight flits = 224 (224 measured)
latency change    = 0.180783
throughput change = 0.00255788
Class 0:
Packet latency average = 5863.76
	minimum = 13
	maximum = 31323
Network latency average = 84.464
	minimum = 13
	maximum = 380
Slowest packet = 2781
Flit latency average = 28.3964
	minimum = 6
	maximum = 166
Slowest flit = 118190
Fragmentation average = 13.198
	minimum = 0
	maximum = 162
Injected packet rate average = 0.000661328
	minimum = 0 (at node 0)
	maximum = 0.03795 (at node 179)
Accepted packet rate average = 0.000662012
	minimum = 0 (at node 12)
	maximum = 0.006375 (at node 128)
Injected flit rate average = 0.0264789
	minimum = 0 (at node 0)
	maximum = 0.7092 (at node 247)
Accepted flit rate average= 0.0264856
	minimum = 0 (at node 12)
	maximum = 0.1518 (at node 7)
Injected packet length average = 40.039
Accepted packet length average = 40.0078
Total in-flight flits = 416 (416 measured)
latency change    = 0.147917
throughput change = 0.00327049
Draining remaining packets ...
Time taken is 50128 cycles
====== Overall Traffic Statistics ======
====== Traffic class 0 ======
Packet latency average = 5867.67 (1 samples)
	minimum = 13 (1 samples)
	maximum = 31325 (1 samples)
Network latency average = 84.5009 (1 samples)
	minimum = 13 (1 samples)
	maximum = 380 (1 samples)
Flit latency average = 28.4094 (1 samples)
	minimum = 6 (1 samples)
	maximum = 166 (1 samples)
Fragmentation average = 13.1983 (1 samples)
	minimum = 0 (1 samples)
	maximum = 162 (1 samples)
Injected packet rate average = 0.000661328 (1 samples)
	minimum = 0 (1 samples)
	maximum = 0.03795 (1 samples)
Accepted packet rate average = 0.000662012 (1 samples)
	minimum = 0 (1 samples)
	maximum = 0.006375 (1 samples)
Injected flit rate average = 0.0264789 (1 samples)
	minimum = 0 (1 samples)
	maximum = 0.7092 (1 samples)
Accepted flit rate average = 0.0264856 (1 samples)
	minimum = 0 (1 samples)
	maximum = 0.1518 (1 samples)
Injected packet size average = 40.039 (1 samples)
Accepted packet size average = 40.0078 (1 samples)
Hops average = 5.97135 (1 samples)
Total run time 25.7975
Info: Working for wide_resnet50_2_layer1
====================== FINISH =========================


Info: Working for wide_resnet50_2_layer2
====================== FINISH =========================


Info: Working for wide_resnet50_2_layer3
====================== FINISH =========================


Info: Working for wide_resnet50_2_layer4
====================== FINISH =========================


Info: Working for resnext50_32x4d_layer1
====================== FINISH =========================


Info: Working for resnext50_32x4d_layer2
====================== FINISH =========================


Info: Working for resnext50_32x4d_layer3
====================== FINISH =========================


Info: Working for resnext50_32x4d_layer4
====================== FINISH =========================


Info: Working for resnet50_layer1
====================== FINISH =========================


Info: Working for resnet50_layer2
====================== FINISH =========================


Info: Working for resnet50_layer3
====================== FINISH =========================


Info: Working for resnet50_layer4
====================== FINISH =========================


Info: Working for resnet50_layer5
====================== FINISH =========================


Info: Working for resnet50_layer6
====================== FINISH =========================


Info: Working for resnet50_layer7
====================== FINISH =========================


Info: Working for resnet50_layer8
====================== FINISH =========================


Info: Working for vgg16_layer1
====================== FINISH =========================


Info: Working for vgg16_layer2
====================== FINISH =========================


Info: Working for vgg16_layer3
====================== FINISH =========================


Info: Working for vgg16_layer4
====================== FINISH =========================


[[ 0  0  0  0  3  3  3  3  4  4  4  4  5  5  5  5]
 [ 0  0  0  0  3  3  3  3  4  4  4  4  5  5  5  5]
 [ 0  0  0  0  3  3  3  3  4  4  4  4  5  5  5  5]
 [ 0  0  0  0  3  3  3  3  4  4  4  4  5  5  5  5]
 [ 1  1  1  1  2  2  2  2  7  7  7  7  6  6  6  6]
 [ 1  1  1  1  2  2  2  2  7  7  7  7  6  6  6  6]
 [ 1  1  1  1  2  2  2  2  7  7  7  7  6  6  6  6]
 [ 1  1  1  1  2  2  2  2  7  7  7  7  6  6  6  6]
 [13 13 12 12 11 11 10 10 16 16 16 16 17 17 17 17]
 [13 13 12 12 11 11 10 10 16 16 16 16 17 17 17 17]
 [13 13 12 12 11 11 10 10 16 16 16 16 17 17 17 17]
 [13 13 12 12 11 11 10 10 16 16 16 16 17 17 17 17]
 [14 14 14 14  9  9  9  9 19 19 19 19 18 18 18 18]
 [14 14 14 14  9  9  9  9 19 19 19 19 18 18 18 18]
 [15 15 15 15  8  8  8  8 19 19 19 19 18 18 18 18]
 [15 15 15 15  8  8  8  8 19 19 19 19 18 18 18 18]]
BEGIN Configuration File: examples/focusconfig
topology = mesh;
k = 16;
n = 2;

sim_type = throughput;

packet_size = 1;
warmup_periods = 1;
sample_period = 10000;
max_samples = 5;

burst_alpha = 0.5;
burst_beta = -1.0;

// Routing

routing_function = dim_order;
// routing_function = min_adapt;
// routing_function = xy_yx;
// routing_function = romm;


// Flow control
num_vcs = 2;
vc_buf_size = 4;

// Traffic
traffic = focus;
injection_process = focus;

END Configuration File: examples/focusconfig
Warning: injection kernel is renewed
Warning: injection kernel is renewed
Class 0:
Packet latency average = 669.139
	minimum = 14
	maximum = 9305
Network latency average = 68.9058
	minimum = 14
	maximum = 999
Slowest packet = 188
Flit latency average = 21.0154
	minimum = 6
	maximum = 44
Slowest flit = 5729
Fragmentation average = 10.0695
	minimum = 0
	maximum = 192
Injected packet rate average = 0.000446875
	minimum = 0 (at node 0)
	maximum = 0.0039 (at node 127)
Accepted packet rate average = 0.00044375
	minimum = 0 (at node 4)
	maximum = 0.0027 (at node 168)
Injected flit rate average = 0.0189059
	minimum = 0 (at node 0)
	maximum = 0.7607 (at node 8)
Accepted flit rate average= 0.018875
	minimum = 0 (at node 4)
	maximum = 0.2129 (at node 168)
Injected packet length average = 42.3068
Accepted packet length average = 42.5352
Total in-flight flits = 2446 (0 measured)
latency change    = 1
throughput change = 1
Warmed up ...Time used is 10000 cycles
Class 0:
Packet latency average = 8308.87
	minimum = 17
	maximum = 18809
Network latency average = 229.64
	minimum = 17
	maximum = 999
Slowest packet = 1145
Flit latency average = 20.9367
	minimum = 6
	maximum = 42
Slowest flit = 50507
Fragmentation average = 41.053
	minimum = 0
	maximum = 192
Injected packet rate average = 0.000105859
	minimum = 0 (at node 0)
	maximum = 0.0031 (at node 112)
Accepted packet rate average = 0.00010625
	minimum = 0 (at node 5)
	maximum = 0.0007 (at node 143)
Injected flit rate average = 0.0185031
	minimum = 0 (at node 0)
	maximum = 0.7856 (at node 8)
Accepted flit rate average= 0.0184984
	minimum = 0 (at node 5)
	maximum = 0.2313 (at node 152)
Injected packet length average = 174.79
Accepted packet length average = 174.103
Total in-flight flits = 929 (929 measured)
latency change    = 0.919467
throughput change = 0.0203564
Class 0:
Packet latency average = 10889.2
	minimum = 17
	maximum = 28222
Network latency average = 257.482
	minimum = 17
	maximum = 999
Slowest packet = 1145
Flit latency average = 20.9142
	minimum = 6
	maximum = 42
Slowest flit = 50507
Fragmentation average = 46.53
	minimum = 0
	maximum = 192
Injected packet rate average = 9.58984e-05
	minimum = 0 (at node 0)
	maximum = 0.003 (at node 127)
Accepted packet rate average = 9.58984e-05
	minimum = 0 (at node 5)
	maximum = 0.00065 (at node 143)
Injected flit rate average = 0.0185039
	minimum = 0 (at node 0)
	maximum = 0.7868 (at node 8)
Accepted flit rate average= 0.018499
	minimum = 0 (at node 5)
	maximum = 0.3376 (at node 152)
Injected packet length average = 192.953
Accepted packet length average = 192.902
Total in-flight flits = 988 (988 measured)
latency change    = 0.236959
throughput change = 3.1674e-05
Class 0:
Packet latency average = 13696.7
	minimum = 17
	maximum = 37702
Network latency average = 260.297
	minimum = 17
	maximum = 999
Slowest packet = 1145
Flit latency average = 21.0616
	minimum = 6
	maximum = 42
Slowest flit = 50507
Fragmentation average = 47.1214
	minimum = 0
	maximum = 192
Injected packet rate average = 9.53125e-05
	minimum = 0 (at node 0)
	maximum = 0.00293333 (at node 127)
Accepted packet rate average = 9.54427e-05
	minimum = 0 (at node 5)
	maximum = 0.000633333 (at node 152)
Injected flit rate average = 0.0184993
	minimum = 0 (at node 0)
	maximum = 0.7856 (at node 8)
Accepted flit rate average= 0.0184977
	minimum = 0 (at node 5)
	maximum = 0.4883 (at node 152)
Injected packet length average = 194.092
Accepted packet length average = 193.809
Total in-flight flits = 1536 (1536 measured)
latency change    = 0.204982
throughput change = 7.39114e-05
Draining remaining packets ...
Time taken is 40971 cycles
====== Overall Traffic Statistics ======
====== Traffic class 0 ======
Packet latency average = 13900.8 (1 samples)
	minimum = 17 (1 samples)
	maximum = 38076 (1 samples)
Network latency average = 263.153 (1 samples)
	minimum = 17 (1 samples)
	maximum = 999 (1 samples)
Flit latency average = 21.0713 (1 samples)
	minimum = 6 (1 samples)
	maximum = 42 (1 samples)
Fragmentation average = 47.6762 (1 samples)
	minimum = 0 (1 samples)
	maximum = 192 (1 samples)
Injected packet rate average = 9.53125e-05 (1 samples)
	minimum = 0 (1 samples)
	maximum = 0.00293333 (1 samples)
Accepted packet rate average = 9.54427e-05 (1 samples)
	minimum = 0 (1 samples)
	maximum = 0.000633333 (1 samples)
Injected flit rate average = 0.0184993 (1 samples)
	minimum = 0 (1 samples)
	maximum = 0.7856 (1 samples)
Accepted flit rate average = 0.0184977 (1 samples)
	minimum = 0 (1 samples)
	maximum = 0.4883 (1 samples)
Injected packet size average = 194.092 (1 samples)
Accepted packet size average = 193.809 (1 samples)
Hops average = 4.32923 (1 samples)
Total run time 16.5728
Info: Working for bert_layer1
====================== FINISH =========================


Info: Working for bert_layer2
====================== FINISH =========================


Info: Working for bert_layer3
====================== FINISH =========================


Info: Working for bert_layer4
====================== FINISH =========================


Info: Working for bert_layer5
====================== FINISH =========================


Info: Working for bert_layer6
====================== FINISH =========================


Info: Working for bert_layer7
====================== FINISH =========================


Info: Working for bert_layer8
====================== FINISH =========================


Info: Working for bert_layer9
====================== FINISH =========================


Info: Working for bert_layer10
====================== FINISH =========================


Info: Working for bert_layer11
====================== FINISH =========================


Info: Working for bert_layer12
====================== FINISH =========================


Info: Working for bert_layer13
====================== FINISH =========================


Info: Working for bert_layer14
====================== FINISH =========================


Info: Working for bert_layer15
====================== FINISH =========================


Info: Working for bert_layer16
====================== FINISH =========================


Info: Working for bert_layer17
====================== FINISH =========================


Info: Working for bert_layer18
====================== FINISH =========================


Info: Working for bert_layer19
====================== FINISH =========================


Info: Working for bert_layer20
====================== FINISH =========================


Info: Working for bert_layer21
====================== FINISH =========================


Info: Working for bert_layer22
====================== FINISH =========================


Info: Working for bert_layer23
====================== FINISH =========================


Info: Working for bert_layer24
====================== FINISH =========================


Info: Working for bert_layer25
====================== FINISH =========================


Info: Working for bert_layer26
====================== FINISH =========================


Info: Working for bert_layer27
====================== FINISH =========================


Info: Working for bert_layer28
====================== FINISH =========================


Info: Working for bert_layer29
====================== FINISH =========================


Info: Working for bert_layer30
====================== FINISH =========================


Info: Working for bert_layer31
====================== FINISH =========================


Info: Working for bert_layer32
====================== FINISH =========================


Info: Working for bert_layer33
====================== FINISH =========================


Info: Working for bert_layer34
====================== FINISH =========================


Info: Working for bert_layer35
====================== FINISH =========================


Info: Working for bert_layer36
====================== FINISH =========================


Info: Working for bert_layer37
====================== FINISH =========================


Info: Working for bert_layer38
====================== FINISH =========================


Info: Working for bert_layer39
====================== FINISH =========================


Info: Working for bert_layer40
====================== FINISH =========================


Info: Working for bert_layer41
====================== FINISH =========================


Info: Working for bert_layer42
====================== FINISH =========================


Info: Working for bert_layer43
====================== FINISH =========================


Info: Working for bert_layer44
====================== FINISH =========================


Info: Working for bert_layer45
====================== FINISH =========================


Info: Working for bert_layer46
====================== FINISH =========================


Info: Working for bert_layer47
====================== FINISH =========================


Info: Working for bert_layer48
====================== FINISH =========================


Info: Working for bert_layer49
====================== FINISH =========================


Info: Working for bert_layer50
====================== FINISH =========================


Info: Working for bert_layer51
====================== FINISH =========================


Info: Working for bert_layer52
====================== FINISH =========================


Info: Working for bert_layer53
====================== FINISH =========================


Info: Working for bert_layer54
====================== FINISH =========================


Info: Working for bert_layer55
====================== FINISH =========================


Info: Working for bert_layer56
====================== FINISH =========================


Info: Working for bert_layer57
====================== FINISH =========================


Info: Working for bert_layer58
====================== FINISH =========================


Info: Working for bert_layer59
====================== FINISH =========================


Info: Working for bert_layer60
====================== FINISH =========================


Info: Working for bert_layer61
====================== FINISH =========================


Info: Working for bert_layer62
====================== FINISH =========================


Info: Working for bert_layer63
====================== FINISH =========================


Info: Working for bert_layer64
====================== FINISH =========================


Info: Working for bert_layer65
====================== FINISH =========================


Info: Working for bert_layer66
====================== FINISH =========================


Info: Working for bert_layer67
====================== FINISH =========================


Info: Working for bert_layer68
====================== FINISH =========================


Info: Working for bert_layer69
====================== FINISH =========================


Info: Working for bert_layer70
====================== FINISH =========================


Info: Working for bert_layer71
====================== FINISH =========================


Info: Working for bert_layer72
====================== FINISH =========================


Info: Working for bert_layer73
====================== FINISH =========================


[[ 0  1  2  2 29 29 30 31 32 32 39 39 40 41 42 42]
 [ 0  1  3  3 28 28 30 31 33 33 38 38 40 41 43 43]
 [ 7  6  4  4 27 27 25 24 34 35 36 37 47 46 44 44]
 [ 7  6  5  5 26 26 25 24 34 35 36 37 47 46 45 45]
 [ 8  8 15 15 16 16 23 23 61 60 59 58 48 49 50 50]
 [ 9  9 14 14 17 17 22 22 61 60 59 58 48 49 51 51]
 [10 11 12 13 18 19 20 21 62 62 57 57 55 54 52 52]
 [10 11 12 13 18 19 20 21 63 63 56 56 55 54 53 53]
 [-1 -1 -1 -1 -1 -1 -1 -1 64 64 71 71 72 -1 -1 -1]
 [-1 -1 -1 -1 -1 -1 -1 -1 65 65 70 70 72 -1 -1 -1]
 [-1 -1 -1 -1 -1 -1 -1 -1 66 67 68 69 -1 -1 -1 -1]
 [-1 -1 -1 -1 -1 -1 -1 -1 66 67 68 69 -1 -1 -1 -1]
 [-1 -1 -1 -1 -1 -1 -1 -1 -1 -1 -1 -1 -1 -1 -1 -1]
 [-1 -1 -1 -1 -1 -1 -1 -1 -1 -1 -1 -1 -1 -1 -1 -1]
 [-1 -1 -1 -1 -1 -1 -1 -1 -1 -1 -1 -1 -1 -1 -1 -1]
 [-1 -1 -1 -1 -1 -1 -1 -1 -1 -1 -1 -1 -1 -1 -1 -1]]
