BEGIN Configuration File: examples/focusconfig
topology = mesh;
k = 8;
n = 2;

sim_type = throughput;

packet_size = 1;
warmup_periods = 2;
sample_period = 100000;

burst_alpha = 0.75;
burst_beta = -1.0;

// Routing
routing_function = planar_adapt;
// Flow control

num_vcs = 8;
vc_buf_size = 8;

// Traffic
traffic = focus;
injection_process = focus;

END Configuration File: examples/focusconfig
Class 0:
Packet latency average = 12814
	minimum = 12
	maximum = 97737
Network latency average = 358.583
	minimum = 12
	maximum = 27147
Slowest packet = 6734
Flit latency average = 358.583
	minimum = 12
	maximum = 27147
Slowest flit = 424776
Fragmentation average = 0
	minimum = 0
	maximum = 0
Injected packet rate average = 0.110653
	minimum = 0 (at node 53)
	maximum = 0.85739 (at node 43)
Accepted packet rate average = 0.110237
	minimum = 0 (at node 12)
	maximum = 0.99983 (at node 45)
Injected flit rate average = 0.110653
	minimum = 0 (at node 53)
	maximum = 0.85739 (at node 43)
Accepted flit rate average= 0.110237
	minimum = 0 (at node 12)
	maximum = 0.99983 (at node 45)
Injected packet length average = 1
Accepted packet length average = 1
Total in-flight flits = 2676 (0 measured)
latency change    = 1
throughput change = 1
Class 0:
Packet latency average = 25605.3
	minimum = 12
	maximum = 196062
Network latency average = 366.104
	minimum = 12
	maximum = 28233
Slowest packet = 6734
Flit latency average = 366.104
	minimum = 12
	maximum = 28233
Slowest flit = 944033
Fragmentation average = 0
	minimum = 0
	maximum = 0
Injected packet rate average = 0.11036
	minimum = 0 (at node 53)
	maximum = 0.85763 (at node 43)
Accepted packet rate average = 0.110158
	minimum = 0 (at node 12)
	maximum = 0.999915 (at node 45)
Injected flit rate average = 0.11036
	minimum = 0 (at node 53)
	maximum = 0.85763 (at node 43)
Accepted flit rate average= 0.110158
	minimum = 0 (at node 12)
	maximum = 0.999915 (at node 45)
Injected packet length average = 1
Accepted packet length average = 1
Total in-flight flits = 2611 (0 measured)
latency change    = 0.499557
throughput change = 0.000723396
Warmed up ...Time used is 200000 cycles
Class 0:
Packet latency average = 63961.5
	minimum = 12
	maximum = 293906
Network latency average = 364.172
	minimum = 12
	maximum = 27237
Slowest packet = 1412662
Flit latency average = 372.961
	minimum = 12
	maximum = 27512
Slowest flit = 1340974
Fragmentation average = 0
	minimum = 0
	maximum = 0
Injected packet rate average = 0.110221
	minimum = 0 (at node 53)
	maximum = 0.85875 (at node 43)
Accepted packet rate average = 0.110218
	minimum = 0 (at node 12)
	maximum = 1 (at node 45)
Injected flit rate average = 0.110221
	minimum = 0 (at node 53)
	maximum = 0.85875 (at node 43)
Accepted flit rate average= 0.110218
	minimum = 0 (at node 12)
	maximum = 1 (at node 45)
Injected packet length average = 1
Accepted packet length average = 1
Total in-flight flits = 2624 (2624 measured)
latency change    = 0.599676
throughput change = 0.000551463
[[ 8  8  9  9  9  9  9  9]
 [ 8  8  9  9  9  9  9  9]
 [ 8  8  8  8 10 10 10 10]
 [ 8  8  8  8 10 10 10 10]
 [ 5  4  3  2 10 10 11 11]
 [ 5  4  3  2 10 10 11 11]
 [ 6  6  1  1 11 11 11 11]
 [ 7  7  0  0 11 11 11 11]]
Info: Working for wide_resnet50_2_layer34
timeloop-mapper.map.txt
====================== FINISH =========================


Info: Working for wide_resnet50_2_layer35
timeloop-mapper.map.txt
====================== FINISH =========================


Info: Working for wide_resnet50_2_layer36
timeloop-mapper.map.txt
====================== FINISH =========================


Info: Working for wide_resnet50_2_layer37
timeloop-mapper.map.txt
====================== FINISH =========================


Info: Working for wide_resnet50_2_layer38
timeloop-mapper.map.txt
====================== FINISH =========================


Info: Working for wide_resnet50_2_layer39
timeloop-mapper.map.txt
====================== FINISH =========================


Info: Working for wide_resnet50_2_layer40
timeloop-mapper.map.txt
====================== FINISH =========================


Info: Working for wide_resnet50_2_layer41
timeloop-mapper.map.txt
====================== FINISH =========================


Info: Working for resnext50_32x4d_layer31
timeloop-mapper.map.txt
====================== FINISH =========================


Info: Working for resnext50_32x4d_layer32
timeloop-mapper.map.txt
====================== FINISH =========================


Info: Working for resnext50_32x4d_layer33
timeloop-mapper.map.txt
====================== FINISH =========================


Info: Working for resnext50_32x4d_layer34
timeloop-mapper.map.txt
====================== FINISH =========================


Info: Working for wide_resnet50_2_layer34
====================== FINISH =========================


Info: Working for wide_resnet50_2_layer35
====================== FINISH =========================


Info: Working for wide_resnet50_2_layer36
====================== FINISH =========================


Info: Working for wide_resnet50_2_layer37
====================== FINISH =========================


Info: Working for wide_resnet50_2_layer38
====================== FINISH =========================


Info: Working for wide_resnet50_2_layer39
====================== FINISH =========================


Info: Working for wide_resnet50_2_layer40
====================== FINISH =========================


Info: Working for wide_resnet50_2_layer41
====================== FINISH =========================


Info: Working for resnext50_32x4d_layer31
====================== FINISH =========================


Info: Working for resnext50_32x4d_layer32
====================== FINISH =========================


Info: Working for resnext50_32x4d_layer33
====================== FINISH =========================


Info: Working for resnext50_32x4d_layer34
====================== FINISH =========================


Generate 100 individuals Parallel
Start Evolution Search...
Evolutionary Search:   0%|          | 0/30 [00:00<?, ?it/s]Evolutionary Search:   0%|          | 0/30 [00:00<?, ?it/s, new_best_score=-1.44]Start Generation=0
Now Best score: -1.4378473670117087 Best Individual <ts_scheduler.individual.Individual object at 0x7f26ed6b22b0>
Start Mutation
<ts_scheduler.individual.Individual object at 0x7f26f4acae48>
<ts_scheduler.individual.Individual object at 0x7f26f02ba5f8>
<ts_scheduler.individual.Individual object at 0x7f26f4a94ef0>
<ts_scheduler.individual.Individual object at 0x7f26eda71438>
<ts_scheduler.individual.Individual object at 0x7f26ed8a9978>
<ts_scheduler.individual.Individual object at 0x7f26edb356a0>
<ts_scheduler.individual.Individual object at 0x7f26eda203c8>
<ts_scheduler.individual.Individual object at 0x7f26eda9f4e0>
<ts_scheduler.individual.Individual object at 0x7f26ed7e5198>
<ts_scheduler.individual.Individual object at 0x7f26f4a1b748>
<ts_scheduler.individual.Individual object at 0x7f26f4a3a438>
<ts_scheduler.individual.Individual object at 0x7f26f0303eb8>
<ts_scheduler.individual.Individual object at 0x7f26ed87d358>
<ts_scheduler.individual.Individual object at 0x7f26f030f908>
<ts_scheduler.individual.Individual object at 0x7f26ed7aba20>
<ts_scheduler.individual.Individual object at 0x7f26ed68d0b8>
<ts_scheduler.individual.Individual object at 0x7f26ed7f7320>
<ts_scheduler.individual.Individual object at 0x7f26f0263940>
<ts_scheduler.individual.Individual object at 0x7f26eda71438>
<ts_scheduler.individual.Individual object at 0x7f26f021c128>
<ts_scheduler.individual.Individual object at 0x7f26ed6525f8>
<ts_scheduler.individual.Individual object at 0x7f26ed7e5198>
<ts_scheduler.individual.Individual object at 0x7f26f038ac50>
<ts_scheduler.individual.Individual object at 0x7f26ed80d588>
<ts_scheduler.individual.Individual object at 0x7f26ed6eee80>
Start Crossover
Evolutionary Search:   3%|▎         | 1/30 [00:05<02:29,  5.16s/it, new_best_score=-1.44]Evolutionary Search:   3%|▎         | 1/30 [00:05<02:29,  5.16s/it, new_best_score=-1.44]Start Generation=1
Now Best score: -1.4378473670117087 Best Individual <ts_scheduler.individual.Individual object at 0x7f26ed6b22b0>
Start Mutation
<ts_scheduler.individual.Individual object at 0x7f26f4a46748>
<ts_scheduler.individual.Individual object at 0x7f26f4a66c50>
<ts_scheduler.individual.Individual object at 0x7f26edb356a0>
<ts_scheduler.individual.Individual object at 0x7f26ed97e828>
<ts_scheduler.individual.Individual object at 0x7f26f029cf98>
<ts_scheduler.individual.Individual object at 0x7f26ed7aba20>
<ts_scheduler.individual.Individual object at 0x7f26f49e14a8>
<ts_scheduler.individual.Individual object at 0x7f26ed87d358>
<ts_scheduler.individual.Individual object at 0x7f26ed87d358>
<ts_scheduler.individual.Individual object at 0x7f26ed9f25c0>
<ts_scheduler.individual.Individual object at 0x7f26f4a66c50>
<ts_scheduler.individual.Individual object at 0x7f26f4acae48>
<ts_scheduler.individual.Individual object at 0x7f26ed68d0b8>
<ts_scheduler.individual.Individual object at 0x7f26f038ac50>
<ts_scheduler.individual.Individual object at 0x7f26f4a66c50>
<ts_scheduler.individual.Individual object at 0x7f26f9a23080>
<ts_scheduler.individual.Individual object at 0x7f26ed724a58>
<ts_scheduler.individual.Individual object at 0x7f26f4b36b00>
<ts_scheduler.individual.Individual object at 0x7f26eda69588>
<ts_scheduler.individual.Individual object at 0x7f26f49e14a8>
<ts_scheduler.individual.Individual object at 0x7f26ed7d2668>
<ts_scheduler.individual.Individual object at 0x7f26ed720668>
<ts_scheduler.individual.Individual object at 0x7f26f029cf98>
<ts_scheduler.individual.Individual object at 0x7f26f029cf98>
<ts_scheduler.individual.Individual object at 0x7f26eda203c8>
Start Crossover
Evolutionary Search:   7%|▋         | 2/30 [00:10<02:21,  5.07s/it, new_best_score=-1.44]Evolutionary Search:   7%|▋         | 2/30 [00:10<02:21,  5.07s/it, new_best_score=-1.41]Start Generation=2
Now Best score: -1.4130306295385218 Best Individual <ts_scheduler.individual.Individual object at 0x7f26ed6faa58>
Start Mutation
<ts_scheduler.individual.Individual object at 0x7f26f4acae48>
<ts_scheduler.individual.Individual object at 0x7f26ed76f048>
<ts_scheduler.individual.Individual object at 0x7f26f0303eb8>
<ts_scheduler.individual.Individual object at 0x7f26ed9b7fd0>
<ts_scheduler.individual.Individual object at 0x7f26ed6525f8>
<ts_scheduler.individual.Individual object at 0x7f26ed9ae0f0>
<ts_scheduler.individual.Individual object at 0x7f26ed9b7fd0>
<ts_scheduler.individual.Individual object at 0x7f26ed6525f8>
<ts_scheduler.individual.Individual object at 0x7f26edb34080>
<ts_scheduler.individual.Individual object at 0x7f26ed8a9978>
<ts_scheduler.individual.Individual object at 0x7f26f022e2b0>
<ts_scheduler.individual.Individual object at 0x7f26edaf72e8>
<ts_scheduler.individual.Individual object at 0x7f26f9a45eb8>
<ts_scheduler.individual.Individual object at 0x7f26ed6b22b0>
<ts_scheduler.individual.Individual object at 0x7f26f4aabcc0>
<ts_scheduler.individual.Individual object at 0x7f26eda203c8>
<ts_scheduler.individual.Individual object at 0x7f26ed720668>
<ts_scheduler.individual.Individual object at 0x7f26ed76f048>
<ts_scheduler.individual.Individual object at 0x7f26eda203c8>
<ts_scheduler.individual.Individual object at 0x7f26eda9f4e0>
<ts_scheduler.individual.Individual object at 0x7f26eda1fd68>
<ts_scheduler.individual.Individual object at 0x7f26f029cf98>
<ts_scheduler.individual.Individual object at 0x7f26ed720f98>
<ts_scheduler.individual.Individual object at 0x7f26eda1fd68>
<ts_scheduler.individual.Individual object at 0x7f26ed720f98>
Start Crossover
Evolutionary Search:  10%|█         | 3/30 [00:15<02:14,  4.98s/it, new_best_score=-1.41]Evolutionary Search:  10%|█         | 3/30 [00:15<02:14,  4.98s/it, new_best_score=-1.41]Start Generation=3
Now Best score: -1.4130306295385218 Best Individual <ts_scheduler.individual.Individual object at 0x7f26ed6faa58>
Start Mutation
<ts_scheduler.individual.Individual object at 0x7f26ed720f98>
<ts_scheduler.individual.Individual object at 0x7f26eda66470>
<ts_scheduler.individual.Individual object at 0x7f26f0303160>
<ts_scheduler.individual.Individual object at 0x7f26ed720668>
<ts_scheduler.individual.Individual object at 0x7f26ed781780>
<ts_scheduler.individual.Individual object at 0x7f26f4aabcc0>
<ts_scheduler.individual.Individual object at 0x7f26ed7aba20>
<ts_scheduler.individual.Individual object at 0x7f26eda84358>
<ts_scheduler.individual.Individual object at 0x7f26ed6b22b0>
<ts_scheduler.individual.Individual object at 0x7f26f4a1b978>
<ts_scheduler.individual.Individual object at 0x7f26ed63c898>
<ts_scheduler.individual.Individual object at 0x7f26ed730c18>
<ts_scheduler.individual.Individual object at 0x7f26ed9ae0f0>
<ts_scheduler.individual.Individual object at 0x7f26f0362c88>
<ts_scheduler.individual.Individual object at 0x7f26ed87dbe0>
<ts_scheduler.individual.Individual object at 0x7f26ed85ab70>
<ts_scheduler.individual.Individual object at 0x7f26ed76ecc0>
<ts_scheduler.individual.Individual object at 0x7f26ed781780>
<ts_scheduler.individual.Individual object at 0x7f26f4a0fe48>
<ts_scheduler.individual.Individual object at 0x7f26f4a1b978>
<ts_scheduler.individual.Individual object at 0x7f26ed9a1080>
<ts_scheduler.individual.Individual object at 0x7f26edaf72e8>
<ts_scheduler.individual.Individual object at 0x7f26ed7aba20>
<ts_scheduler.individual.Individual object at 0x7f26f0362c88>
<ts_scheduler.individual.Individual object at 0x7f26f0362c88>
Start Crossover
Evolutionary Search:  13%|█▎        | 4/30 [00:20<02:10,  5.00s/it, new_best_score=-1.41]Evolutionary Search:  13%|█▎        | 4/30 [00:20<02:10,  5.00s/it, new_best_score=-1.31]Start Generation=4
Now Best score: -1.3130152743568693 Best Individual <ts_scheduler.individual.Individual object at 0x7f26ed7e9160>
Start Mutation
<ts_scheduler.individual.Individual object at 0x7f26f4ab1d30>
<ts_scheduler.individual.Individual object at 0x7f26ed6fb978>
<ts_scheduler.individual.Individual object at 0x7f26f0373128>
<ts_scheduler.individual.Individual object at 0x7f26ed87dbe0>
<ts_scheduler.individual.Individual object at 0x7f26ed6525f8>
<ts_scheduler.individual.Individual object at 0x7f26edacf048>
<ts_scheduler.individual.Individual object at 0x7f26ed7aba20>
<ts_scheduler.individual.Individual object at 0x7f26f021afd0>
<ts_scheduler.individual.Individual object at 0x7f26f0362c88>
<ts_scheduler.individual.Individual object at 0x7f26ed6faa58>
<ts_scheduler.individual.Individual object at 0x7f26f0303160>
<ts_scheduler.individual.Individual object at 0x7f26ed7aba20>
<ts_scheduler.individual.Individual object at 0x7f26edafa6a0>
<ts_scheduler.individual.Individual object at 0x7f26f0362a20>
<ts_scheduler.individual.Individual object at 0x7f26eda9f4e0>
<ts_scheduler.individual.Individual object at 0x7f26ed9b1dd8>
<ts_scheduler.individual.Individual object at 0x7f26f0362a20>
<ts_scheduler.individual.Individual object at 0x7f26edafa6a0>
<ts_scheduler.individual.Individual object at 0x7f26ed6776a0>
<ts_scheduler.individual.Individual object at 0x7f26ed781780>
<ts_scheduler.individual.Individual object at 0x7f26eda66470>
<ts_scheduler.individual.Individual object at 0x7f26ed8d82e8>
<ts_scheduler.individual.Individual object at 0x7f26ed85ab70>
<ts_scheduler.individual.Individual object at 0x7f26edacf048>
<ts_scheduler.individual.Individual object at 0x7f26ed88ec50>
Start Crossover
Evolutionary Search:  17%|█▋        | 5/30 [00:24<02:03,  4.94s/it, new_best_score=-1.31]Evolutionary Search:  17%|█▋        | 5/30 [00:24<02:03,  4.94s/it, new_best_score=-1.3] Start Generation=5
Now Best score: -1.3041406874065915 Best Individual <ts_scheduler.individual.Individual object at 0x7f26eda7ccf8>
Start Mutation
<ts_scheduler.individual.Individual object at 0x7f26eda7ccf8>
<ts_scheduler.individual.Individual object at 0x7f26f4a66c50>
<ts_scheduler.individual.Individual object at 0x7f26eda4d2e8>
<ts_scheduler.individual.Individual object at 0x7f26ed85a7b8>
<ts_scheduler.individual.Individual object at 0x7f26f0362a20>
<ts_scheduler.individual.Individual object at 0x7f26f0227ac8>
<ts_scheduler.individual.Individual object at 0x7f26f4a0fe48>
<ts_scheduler.individual.Individual object at 0x7f26ed7ab6d8>
<ts_scheduler.individual.Individual object at 0x7f26f4a66c50>
<ts_scheduler.individual.Individual object at 0x7f26ed6fb978>
<ts_scheduler.individual.Individual object at 0x7f26f4a1b978>
<ts_scheduler.individual.Individual object at 0x7f26edacf208>
<ts_scheduler.individual.Individual object at 0x7f26ed9b1e10>
<ts_scheduler.individual.Individual object at 0x7f26f0227ac8>
<ts_scheduler.individual.Individual object at 0x7f26ed6fb978>
<ts_scheduler.individual.Individual object at 0x7f26f0227ac8>
<ts_scheduler.individual.Individual object at 0x7f26f4a66c50>
<ts_scheduler.individual.Individual object at 0x7f26ed85ab70>
<ts_scheduler.individual.Individual object at 0x7f26f0362c88>
<ts_scheduler.individual.Individual object at 0x7f26f4a0fe48>
<ts_scheduler.individual.Individual object at 0x7f26ed85ab70>
<ts_scheduler.individual.Individual object at 0x7f26eda66470>
<ts_scheduler.individual.Individual object at 0x7f26eda66470>
<ts_scheduler.individual.Individual object at 0x7f26ed76f048>
<ts_scheduler.individual.Individual object at 0x7f26eda4d2e8>
Start Crossover
Evolutionary Search:  20%|██        | 6/30 [00:29<01:59,  4.98s/it, new_best_score=-1.3]Evolutionary Search:  20%|██        | 6/30 [00:29<01:59,  4.98s/it, new_best_score=-1.3]Start Generation=6
Now Best score: -1.3012392805894681 Best Individual <ts_scheduler.individual.Individual object at 0x7f26f023ce10>
Start Mutation
<ts_scheduler.individual.Individual object at 0x7f26ed87d358>
<ts_scheduler.individual.Individual object at 0x7f26ed7ab6d8>
<ts_scheduler.individual.Individual object at 0x7f26ed6eee80>
<ts_scheduler.individual.Individual object at 0x7f26f023ce10>
<ts_scheduler.individual.Individual object at 0x7f26f030f2e8>
<ts_scheduler.individual.Individual object at 0x7f26f0362c88>
<ts_scheduler.individual.Individual object at 0x7f26f02d9d68>
<ts_scheduler.individual.Individual object at 0x7f26ed7e7c88>
<ts_scheduler.individual.Individual object at 0x7f26eda903c8>
<ts_scheduler.individual.Individual object at 0x7f26f02d9d68>
<ts_scheduler.individual.Individual object at 0x7f26f02279b0>
<ts_scheduler.individual.Individual object at 0x7f26ed85ab70>
<ts_scheduler.individual.Individual object at 0x7f26ed7ab6d8>
<ts_scheduler.individual.Individual object at 0x7f26ed87d358>
<ts_scheduler.individual.Individual object at 0x7f26f021afd0>
<ts_scheduler.individual.Individual object at 0x7f26ed781d30>
<ts_scheduler.individual.Individual object at 0x7f26f023c438>
<ts_scheduler.individual.Individual object at 0x7f26ed6eee80>
<ts_scheduler.individual.Individual object at 0x7f26ed6b22b0>
<ts_scheduler.individual.Individual object at 0x7f26ed7d9da0>
<ts_scheduler.individual.Individual object at 0x7f26f4b3d7b8>
<ts_scheduler.individual.Individual object at 0x7f26f4a0fe48>
<ts_scheduler.individual.Individual object at 0x7f26ed6eee80>
<ts_scheduler.individual.Individual object at 0x7f26eda7ccf8>
<ts_scheduler.individual.Individual object at 0x7f26ed6b22b0>
Start Crossover
Evolutionary Search:  23%|██▎       | 7/30 [00:34<01:53,  4.95s/it, new_best_score=-1.3]Evolutionary Search:  23%|██▎       | 7/30 [00:34<01:53,  4.95s/it, new_best_score=-1.3]Start Generation=7
Now Best score: -1.3012392805894681 Best Individual <ts_scheduler.individual.Individual object at 0x7f26f023ce10>
Start Mutation
<ts_scheduler.individual.Individual object at 0x7f26f02df128>
<ts_scheduler.individual.Individual object at 0x7f26ed795e80>
<ts_scheduler.individual.Individual object at 0x7f26f02670f0>
<ts_scheduler.individual.Individual object at 0x7f26ed7e7f28>
<ts_scheduler.individual.Individual object at 0x7f26f0362c88>
<ts_scheduler.individual.Individual object at 0x7f26f4a5b550>
<ts_scheduler.individual.Individual object at 0x7f26f4b3d4e0>
<ts_scheduler.individual.Individual object at 0x7f26edacf208>
<ts_scheduler.individual.Individual object at 0x7f26f02279b0>
<ts_scheduler.individual.Individual object at 0x7f26ed76f048>
<ts_scheduler.individual.Individual object at 0x7f26ed9f2710>
<ts_scheduler.individual.Individual object at 0x7f26f4b36780>
<ts_scheduler.individual.Individual object at 0x7f26f0373128>
<ts_scheduler.individual.Individual object at 0x7f26ed781d30>
<ts_scheduler.individual.Individual object at 0x7f26f02d8240>
<ts_scheduler.individual.Individual object at 0x7f26ed85ab70>
<ts_scheduler.individual.Individual object at 0x7f26f02d8358>
<ts_scheduler.individual.Individual object at 0x7f26f02279b0>
<ts_scheduler.individual.Individual object at 0x7f26ed7d9da0>
<ts_scheduler.individual.Individual object at 0x7f26f4b24588>
<ts_scheduler.individual.Individual object at 0x7f26f02df128>
<ts_scheduler.individual.Individual object at 0x7f26f4b24588>
<ts_scheduler.individual.Individual object at 0x7f26f030f2e8>
<ts_scheduler.individual.Individual object at 0x7f26eda903c8>
<ts_scheduler.individual.Individual object at 0x7f26f0267898>
Start Crossover
Evolutionary Search:  27%|██▋       | 8/30 [00:39<01:47,  4.86s/it, new_best_score=-1.3]Evolutionary Search:  27%|██▋       | 8/30 [00:39<01:47,  4.86s/it, new_best_score=-1.3]Start Generation=8
Now Best score: -1.3012392805894681 Best Individual <ts_scheduler.individual.Individual object at 0x7f26f023ce10>
Start Mutation
<ts_scheduler.individual.Individual object at 0x7f26ed9a1198>
<ts_scheduler.individual.Individual object at 0x7f26f0275f98>
<ts_scheduler.individual.Individual object at 0x7f26f02df128>
<ts_scheduler.individual.Individual object at 0x7f26f02b59e8>
<ts_scheduler.individual.Individual object at 0x7f26f030f2e8>
<ts_scheduler.individual.Individual object at 0x7f26f02279b0>
<ts_scheduler.individual.Individual object at 0x7f26ed9a1198>
<ts_scheduler.individual.Individual object at 0x7f26f0267898>
<ts_scheduler.individual.Individual object at 0x7f26ed8d72b0>
<ts_scheduler.individual.Individual object at 0x7f26f023c438>
<ts_scheduler.individual.Individual object at 0x7f26f4b3d7b8>
<ts_scheduler.individual.Individual object at 0x7f26eda20b38>
<ts_scheduler.individual.Individual object at 0x7f26f4b36780>
<ts_scheduler.individual.Individual object at 0x7f26f02279b0>
<ts_scheduler.individual.Individual object at 0x7f26ed87d358>
<ts_scheduler.individual.Individual object at 0x7f26eda903c8>
<ts_scheduler.individual.Individual object at 0x7f26f4a2cac8>
<ts_scheduler.individual.Individual object at 0x7f26ed652eb8>
<ts_scheduler.individual.Individual object at 0x7f26f02d8358>
<ts_scheduler.individual.Individual object at 0x7f26edacf048>
<ts_scheduler.individual.Individual object at 0x7f26ed6b2cc0>
<ts_scheduler.individual.Individual object at 0x7f26f02279b0>
<ts_scheduler.individual.Individual object at 0x7f26ed9f2710>
<ts_scheduler.individual.Individual object at 0x7f26f4b3d7b8>
<ts_scheduler.individual.Individual object at 0x7f26ed7ab6d8>
Start Crossover
Evolutionary Search:  30%|███       | 9/30 [00:44<01:41,  4.85s/it, new_best_score=-1.3]Evolutionary Search:  30%|███       | 9/30 [00:44<01:41,  4.85s/it, new_best_score=-1.25]Start Generation=9
Now Best score: -1.2486590364310788 Best Individual <ts_scheduler.individual.Individual object at 0x7f26f0275048>
Start Mutation
<ts_scheduler.individual.Individual object at 0x7f26ed9f2710>
<ts_scheduler.individual.Individual object at 0x7f26ed730ba8>
<ts_scheduler.individual.Individual object at 0x7f26ed748438>
<ts_scheduler.individual.Individual object at 0x7f26f0267898>
<ts_scheduler.individual.Individual object at 0x7f26ed891b00>
<ts_scheduler.individual.Individual object at 0x7f26f4b06438>
<ts_scheduler.individual.Individual object at 0x7f26ed8d72b0>
<ts_scheduler.individual.Individual object at 0x7f26f4b3d4e0>
<ts_scheduler.individual.Individual object at 0x7f26edb10f28>
<ts_scheduler.individual.Individual object at 0x7f26ed6b2cc0>
<ts_scheduler.individual.Individual object at 0x7f26ed7ab6d8>
<ts_scheduler.individual.Individual object at 0x7f26f02279b0>
<ts_scheduler.individual.Individual object at 0x7f26ed7ab6d8>
<ts_scheduler.individual.Individual object at 0x7f26ed7e7f28>
<ts_scheduler.individual.Individual object at 0x7f26ed730ba8>
<ts_scheduler.individual.Individual object at 0x7f26f4a9e128>
<ts_scheduler.individual.Individual object at 0x7f26ed748438>
<ts_scheduler.individual.Individual object at 0x7f26ed8d72b0>
<ts_scheduler.individual.Individual object at 0x7f26f0373128>
<ts_scheduler.individual.Individual object at 0x7f26eda20b38>
<ts_scheduler.individual.Individual object at 0x7f26f4b06438>
<ts_scheduler.individual.Individual object at 0x7f26f02d8358>
<ts_scheduler.individual.Individual object at 0x7f26f02df128>
<ts_scheduler.individual.Individual object at 0x7f26ed730ba8>
<ts_scheduler.individual.Individual object at 0x7f26f023c438>
Start Crossover
Evolutionary Search:  33%|███▎      | 10/30 [00:49<01:37,  4.90s/it, new_best_score=-1.25]Evolutionary Search:  33%|███▎      | 10/30 [00:49<01:37,  4.90s/it, new_best_score=-1.25]Start Generation=10
Now Best score: -1.2486590364310788 Best Individual <ts_scheduler.individual.Individual object at 0x7f26f0275048>
Start Mutation
<ts_scheduler.individual.Individual object at 0x7f26ed6b22b0>
<ts_scheduler.individual.Individual object at 0x7f26ed891b00>
<ts_scheduler.individual.Individual object at 0x7f26f4b36780>
<ts_scheduler.individual.Individual object at 0x7f26edb10f28>
<ts_scheduler.individual.Individual object at 0x7f26eda7ccf8>
<ts_scheduler.individual.Individual object at 0x7f26eda905f8>
<ts_scheduler.individual.Individual object at 0x7f26ed85a7b8>
<ts_scheduler.individual.Individual object at 0x7f26f49ec710>
<ts_scheduler.individual.Individual object at 0x7f26f4b3d048>
<ts_scheduler.individual.Individual object at 0x7f26f02e16d8>
<ts_scheduler.individual.Individual object at 0x7f26f4b3d208>
<ts_scheduler.individual.Individual object at 0x7f26ed891b00>
<ts_scheduler.individual.Individual object at 0x7f26ed8a5588>
<ts_scheduler.individual.Individual object at 0x7f26ed8a5588>
<ts_scheduler.individual.Individual object at 0x7f26eda905f8>
<ts_scheduler.individual.Individual object at 0x7f26f4b06438>
<ts_scheduler.individual.Individual object at 0x7f26eda20b38>
<ts_scheduler.individual.Individual object at 0x7f26ed99f940>
<ts_scheduler.individual.Individual object at 0x7f26eda7ccf8>
<ts_scheduler.individual.Individual object at 0x7f26ed7e9160>
<ts_scheduler.individual.Individual object at 0x7f26f4b3d048>
<ts_scheduler.individual.Individual object at 0x7f26f49ec710>
<ts_scheduler.individual.Individual object at 0x7f26ed7ab6d8>
<ts_scheduler.individual.Individual object at 0x7f26ed85a7b8>
<ts_scheduler.individual.Individual object at 0x7f26f4b3d208>
Start Crossover
Evolutionary Search:  37%|███▋      | 11/30 [00:54<01:32,  4.88s/it, new_best_score=-1.25]Evolutionary Search:  37%|███▋      | 11/30 [00:54<01:32,  4.88s/it, new_best_score=-1.21]Start Generation=11
Now Best score: -1.207356364101763 Best Individual <ts_scheduler.individual.Individual object at 0x7f26f4b29e48>
Start Mutation
<ts_scheduler.individual.Individual object at 0x7f26f02d8358>
<ts_scheduler.individual.Individual object at 0x7f26f02e16d8>
<ts_scheduler.individual.Individual object at 0x7f26ed891b00>
<ts_scheduler.individual.Individual object at 0x7f26f4b47080>
<ts_scheduler.individual.Individual object at 0x7f26ed891b00>
<ts_scheduler.individual.Individual object at 0x7f26ed891b00>
<ts_scheduler.individual.Individual object at 0x7f26f4a0fe48>
<ts_scheduler.individual.Individual object at 0x7f26ed891b00>
<ts_scheduler.individual.Individual object at 0x7f26f02279b0>
<ts_scheduler.individual.Individual object at 0x7f26f02e16d8>
<ts_scheduler.individual.Individual object at 0x7f26ed7e7f28>
<ts_scheduler.individual.Individual object at 0x7f26f023ce10>
<ts_scheduler.individual.Individual object at 0x7f26f4b56518>
<ts_scheduler.individual.Individual object at 0x7f26eda20b38>
<ts_scheduler.individual.Individual object at 0x7f26f49ec710>
<ts_scheduler.individual.Individual object at 0x7f26f02df128>
<ts_scheduler.individual.Individual object at 0x7f26ed6b2cc0>
<ts_scheduler.individual.Individual object at 0x7f26edb06048>
<ts_scheduler.individual.Individual object at 0x7f26f4a96518>
<ts_scheduler.individual.Individual object at 0x7f26edb06048>
<ts_scheduler.individual.Individual object at 0x7f26ed7e9160>
<ts_scheduler.individual.Individual object at 0x7f26ed76fa20>
<ts_scheduler.individual.Individual object at 0x7f26ed8cec88>
<ts_scheduler.individual.Individual object at 0x7f26f02d8358>
<ts_scheduler.individual.Individual object at 0x7f26ed781d30>
Start Crossover
Evolutionary Search:  40%|████      | 12/30 [00:59<01:28,  4.90s/it, new_best_score=-1.21]Evolutionary Search:  40%|████      | 12/30 [00:59<01:28,  4.90s/it, new_best_score=-1.21]Start Generation=12
Now Best score: -1.207356364101763 Best Individual <ts_scheduler.individual.Individual object at 0x7f26f4b29e48>
Start Mutation
<ts_scheduler.individual.Individual object at 0x7f26f4aabeb8>
<ts_scheduler.individual.Individual object at 0x7f26f4a24588>
<ts_scheduler.individual.Individual object at 0x7f26f02df128>
<ts_scheduler.individual.Individual object at 0x7f26ed9f4c18>
<ts_scheduler.individual.Individual object at 0x7f26f4b3ee10>
<ts_scheduler.individual.Individual object at 0x7f26edb10390>
<ts_scheduler.individual.Individual object at 0x7f26f4b3d208>
<ts_scheduler.individual.Individual object at 0x7f26ed6faa58>
<ts_scheduler.individual.Individual object at 0x7f26f022e978>
<ts_scheduler.individual.Individual object at 0x7f26f4b3d4e0>
<ts_scheduler.individual.Individual object at 0x7f26f4b06e80>
<ts_scheduler.individual.Individual object at 0x7f26f4b29e48>
<ts_scheduler.individual.Individual object at 0x7f26f022e208>
<ts_scheduler.individual.Individual object at 0x7f26f023ce10>
<ts_scheduler.individual.Individual object at 0x7f26ed7e9160>
<ts_scheduler.individual.Individual object at 0x7f26f4b06e80>
<ts_scheduler.individual.Individual object at 0x7f26ed8a55f8>
<ts_scheduler.individual.Individual object at 0x7f26ed7e7f28>
<ts_scheduler.individual.Individual object at 0x7f26f4aabeb8>
<ts_scheduler.individual.Individual object at 0x7f26f0275cc0>
<ts_scheduler.individual.Individual object at 0x7f26ed8d82b0>
<ts_scheduler.individual.Individual object at 0x7f26eda905f8>
<ts_scheduler.individual.Individual object at 0x7f26f4b29e48>
<ts_scheduler.individual.Individual object at 0x7f26ed7f5ba8>
<ts_scheduler.individual.Individual object at 0x7f26f4b3d208>
Start Crossover
Evolutionary Search:  43%|████▎     | 13/30 [01:03<01:21,  4.80s/it, new_best_score=-1.21]Evolutionary Search:  43%|████▎     | 13/30 [01:03<01:21,  4.80s/it, new_best_score=-1.17]Start Generation=13
Now Best score: -1.1700592248618196 Best Individual <ts_scheduler.individual.Individual object at 0x7f26edb32ef0>
Start Mutation
<ts_scheduler.individual.Individual object at 0x7f26ed8a5588>
<ts_scheduler.individual.Individual object at 0x7f26f02e0160>
<ts_scheduler.individual.Individual object at 0x7f26f4b3d208>
<ts_scheduler.individual.Individual object at 0x7f26f022e208>
<ts_scheduler.individual.Individual object at 0x7f26ed8cec88>
<ts_scheduler.individual.Individual object at 0x7f26ed7f5ba8>
<ts_scheduler.individual.Individual object at 0x7f26ed846d68>
<ts_scheduler.individual.Individual object at 0x7f26ed6ac780>
<ts_scheduler.individual.Individual object at 0x7f26f0213748>
<ts_scheduler.individual.Individual object at 0x7f26f4aabeb8>
<ts_scheduler.individual.Individual object at 0x7f26ed8d82b0>
<ts_scheduler.individual.Individual object at 0x7f26f4b59e80>
<ts_scheduler.individual.Individual object at 0x7f26ed9f27f0>
<ts_scheduler.individual.Individual object at 0x7f26f4b36780>
<ts_scheduler.individual.Individual object at 0x7f26ed8d8f60>
<ts_scheduler.individual.Individual object at 0x7f26f4b59e80>
<ts_scheduler.individual.Individual object at 0x7f26ed841048>
<ts_scheduler.individual.Individual object at 0x7f26ed8ce6d8>
<ts_scheduler.individual.Individual object at 0x7f26f02e0160>
<ts_scheduler.individual.Individual object at 0x7f26f02e0160>
<ts_scheduler.individual.Individual object at 0x7f26f023ce10>
<ts_scheduler.individual.Individual object at 0x7f26ed6b2cc0>
<ts_scheduler.individual.Individual object at 0x7f26edb1add8>
<ts_scheduler.individual.Individual object at 0x7f26eda7ccf8>
<ts_scheduler.individual.Individual object at 0x7f26ed8d8f60>
Start Crossover
Evolutionary Search:  47%|████▋     | 14/30 [01:08<01:17,  4.86s/it, new_best_score=-1.17]Evolutionary Search:  47%|████▋     | 14/30 [01:08<01:17,  4.86s/it, new_best_score=-1.17]Start Generation=14
Now Best score: -1.1700592248618196 Best Individual <ts_scheduler.individual.Individual object at 0x7f26edb32ef0>
Start Mutation
<ts_scheduler.individual.Individual object at 0x7f26f0275048>
<ts_scheduler.individual.Individual object at 0x7f26edb1add8>
<ts_scheduler.individual.Individual object at 0x7f26f4a24588>
<ts_scheduler.individual.Individual object at 0x7f26eda905f8>
<ts_scheduler.individual.Individual object at 0x7f26ed9ae438>
<ts_scheduler.individual.Individual object at 0x7f26ed7e9160>
<ts_scheduler.individual.Individual object at 0x7f26edb1add8>
<ts_scheduler.individual.Individual object at 0x7f26ed891b00>
<ts_scheduler.individual.Individual object at 0x7f26edb11f98>
<ts_scheduler.individual.Individual object at 0x7f26edb1add8>
<ts_scheduler.individual.Individual object at 0x7f26ed848dd8>
<ts_scheduler.individual.Individual object at 0x7f26f4b36780>
<ts_scheduler.individual.Individual object at 0x7f26edb1add8>
<ts_scheduler.individual.Individual object at 0x7f26ed891b00>
<ts_scheduler.individual.Individual object at 0x7f26ed8cec88>
<ts_scheduler.individual.Individual object at 0x7f26ed8a5588>
<ts_scheduler.individual.Individual object at 0x7f26f02e0160>
<ts_scheduler.individual.Individual object at 0x7f26ed9f27f0>
<ts_scheduler.individual.Individual object at 0x7f26ed6f27f0>
<ts_scheduler.individual.Individual object at 0x7f26ed7e7f28>
<ts_scheduler.individual.Individual object at 0x7f26edb32ef0>
<ts_scheduler.individual.Individual object at 0x7f26f01f7cc0>
<ts_scheduler.individual.Individual object at 0x7f26f4b56518>
<ts_scheduler.individual.Individual object at 0x7f26ed9ae438>
<ts_scheduler.individual.Individual object at 0x7f26f01f7cc0>
Start Crossover
Evolutionary Search:  50%|█████     | 15/30 [01:13<01:11,  4.75s/it, new_best_score=-1.17]Evolutionary Search:  50%|█████     | 15/30 [01:13<01:11,  4.75s/it, new_best_score=-1.17]Start Generation=15
Now Best score: -1.1700592248618196 Best Individual <ts_scheduler.individual.Individual object at 0x7f26edb32ef0>
Start Mutation
<ts_scheduler.individual.Individual object at 0x7f26ed9ae438>
<ts_scheduler.individual.Individual object at 0x7f26f4b06e80>
<ts_scheduler.individual.Individual object at 0x7f26f01f7cc0>
<ts_scheduler.individual.Individual object at 0x7f26ed7e9160>
<ts_scheduler.individual.Individual object at 0x7f26ed620a90>
<ts_scheduler.individual.Individual object at 0x7f26f0263748>
<ts_scheduler.individual.Individual object at 0x7f26ed7e9160>
<ts_scheduler.individual.Individual object at 0x7f26ed8d82b0>
<ts_scheduler.individual.Individual object at 0x7f26f01facc0>
<ts_scheduler.individual.Individual object at 0x7f26ed841048>
<ts_scheduler.individual.Individual object at 0x7f26ed7e7f28>
<ts_scheduler.individual.Individual object at 0x7f26ed9f27f0>
<ts_scheduler.individual.Individual object at 0x7f26edb10390>
<ts_scheduler.individual.Individual object at 0x7f26ed7e7f28>
<ts_scheduler.individual.Individual object at 0x7f26f4b06e80>
<ts_scheduler.individual.Individual object at 0x7f26f02f1c88>
<ts_scheduler.individual.Individual object at 0x7f26f4a965c0>
<ts_scheduler.individual.Individual object at 0x7f26f4b36780>
<ts_scheduler.individual.Individual object at 0x7f26f02f1c88>
<ts_scheduler.individual.Individual object at 0x7f26ed620a90>
<ts_scheduler.individual.Individual object at 0x7f26ed8ce5c0>
<ts_scheduler.individual.Individual object at 0x7f26ed7f5ba8>
<ts_scheduler.individual.Individual object at 0x7f26ed902b38>
<ts_scheduler.individual.Individual object at 0x7f26f4a24588>
<ts_scheduler.individual.Individual object at 0x7f26edb32ef0>
Start Crossover
Evolutionary Search:  53%|█████▎    | 16/30 [01:17<01:05,  4.67s/it, new_best_score=-1.17]Evolutionary Search:  53%|█████▎    | 16/30 [01:17<01:05,  4.67s/it, new_best_score=-1.17]Start Generation=16
Now Best score: -1.1700592248618196 Best Individual <ts_scheduler.individual.Individual object at 0x7f26edb32ef0>
Start Mutation
<ts_scheduler.individual.Individual object at 0x7f26f4b36780>
<ts_scheduler.individual.Individual object at 0x7f26ed9d6438>
<ts_scheduler.individual.Individual object at 0x7f26f023ce10>
<ts_scheduler.individual.Individual object at 0x7f26f022e978>
<ts_scheduler.individual.Individual object at 0x7f26ed902a90>
<ts_scheduler.individual.Individual object at 0x7f26f023ce10>
<ts_scheduler.individual.Individual object at 0x7f26ed652588>
<ts_scheduler.individual.Individual object at 0x7f26f4b3d208>
<ts_scheduler.individual.Individual object at 0x7f26f4b06e80>
<ts_scheduler.individual.Individual object at 0x7f26ed7f5ba8>
<ts_scheduler.individual.Individual object at 0x7f26edb32ef0>
<ts_scheduler.individual.Individual object at 0x7f26ed902a90>
<ts_scheduler.individual.Individual object at 0x7f26ed9ae438>
<ts_scheduler.individual.Individual object at 0x7f26ed8d82b0>
<ts_scheduler.individual.Individual object at 0x7f26f01f7cc0>
<ts_scheduler.individual.Individual object at 0x7f26f0213748>
<ts_scheduler.individual.Individual object at 0x7f26ed702160>
<ts_scheduler.individual.Individual object at 0x7f26ed7f5ba8>
<ts_scheduler.individual.Individual object at 0x7f26f0263748>
<ts_scheduler.individual.Individual object at 0x7f26f4b36780>
<ts_scheduler.individual.Individual object at 0x7f26ed9ae438>
<ts_scheduler.individual.Individual object at 0x7f26f01f7cc0>
<ts_scheduler.individual.Individual object at 0x7f26f4a965c0>
<ts_scheduler.individual.Individual object at 0x7f26ed841048>
<ts_scheduler.individual.Individual object at 0x7f26f4b06e80>
Start Crossover
Evolutionary Search:  57%|█████▋    | 17/30 [01:22<01:00,  4.64s/it, new_best_score=-1.17]Evolutionary Search:  57%|█████▋    | 17/30 [01:22<01:00,  4.64s/it, new_best_score=-1.17]Start Generation=17
Now Best score: -1.1700592248618196 Best Individual <ts_scheduler.individual.Individual object at 0x7f26edb32ef0>
Start Mutation
<ts_scheduler.individual.Individual object at 0x7f26f4b36198>
<ts_scheduler.individual.Individual object at 0x7f26ed8ce5c0>
<ts_scheduler.individual.Individual object at 0x7f26f0213748>
<ts_scheduler.individual.Individual object at 0x7f26f0207630>
<ts_scheduler.individual.Individual object at 0x7f26ed7e9c50>
<ts_scheduler.individual.Individual object at 0x7f26f4b3d208>
<ts_scheduler.individual.Individual object at 0x7f26ed611630>
<ts_scheduler.individual.Individual object at 0x7f26edb32ef0>
<ts_scheduler.individual.Individual object at 0x7f26ed7e9160>
<ts_scheduler.individual.Individual object at 0x7f26ed8cec88>
<ts_scheduler.individual.Individual object at 0x7f26ed620a90>
<ts_scheduler.individual.Individual object at 0x7f26f4a24588>
<ts_scheduler.individual.Individual object at 0x7f26f4b06e80>
<ts_scheduler.individual.Individual object at 0x7f26f030f828>
<ts_scheduler.individual.Individual object at 0x7f26ed7e7f28>
<ts_scheduler.individual.Individual object at 0x7f26f0213748>
<ts_scheduler.individual.Individual object at 0x7f26ed8d82b0>
<ts_scheduler.individual.Individual object at 0x7f26ed902a90>
<ts_scheduler.individual.Individual object at 0x7f26f030f828>
<ts_scheduler.individual.Individual object at 0x7f26f4a965c0>
<ts_scheduler.individual.Individual object at 0x7f26ed953da0>
<ts_scheduler.individual.Individual object at 0x7f26ed702160>
<ts_scheduler.individual.Individual object at 0x7f26ed702160>
<ts_scheduler.individual.Individual object at 0x7f26f023ce10>
<ts_scheduler.individual.Individual object at 0x7f26ed848dd8>
Start Crossover
Evolutionary Search:  60%|██████    | 18/30 [01:26<00:55,  4.63s/it, new_best_score=-1.17]Evolutionary Search:  60%|██████    | 18/30 [01:26<00:55,  4.63s/it, new_best_score=-1.17]Start Generation=18
Now Best score: -1.1700592248618196 Best Individual <ts_scheduler.individual.Individual object at 0x7f26edb32ef0>
Start Mutation
<ts_scheduler.individual.Individual object at 0x7f26f4b3d128>
<ts_scheduler.individual.Individual object at 0x7f26f4a96668>
<ts_scheduler.individual.Individual object at 0x7f26ed6b2cc0>
<ts_scheduler.individual.Individual object at 0x7f26f02c1fd0>
<ts_scheduler.individual.Individual object at 0x7f26edb32ef0>
<ts_scheduler.individual.Individual object at 0x7f26ed7d2160>
<ts_scheduler.individual.Individual object at 0x7f26eda7ccf8>
<ts_scheduler.individual.Individual object at 0x7f26ed902b38>
<ts_scheduler.individual.Individual object at 0x7f26ed953da0>
<ts_scheduler.individual.Individual object at 0x7f26eda7ccf8>
<ts_scheduler.individual.Individual object at 0x7f26ed820e48>
<ts_scheduler.individual.Individual object at 0x7f26f0207630>
<ts_scheduler.individual.Individual object at 0x7f26f4a96668>
<ts_scheduler.individual.Individual object at 0x7f26ed902a90>
<ts_scheduler.individual.Individual object at 0x7f26ed820e48>
<ts_scheduler.individual.Individual object at 0x7f26ed8cec88>
<ts_scheduler.individual.Individual object at 0x7f26edae5668>
<ts_scheduler.individual.Individual object at 0x7f26f023ce10>
<ts_scheduler.individual.Individual object at 0x7f26ed652198>
<ts_scheduler.individual.Individual object at 0x7f26ed902b38>
<ts_scheduler.individual.Individual object at 0x7f26edaf5a20>
<ts_scheduler.individual.Individual object at 0x7f26ed7e9c50>
<ts_scheduler.individual.Individual object at 0x7f26ed7d2160>
<ts_scheduler.individual.Individual object at 0x7f26ed7304a8>
<ts_scheduler.individual.Individual object at 0x7f26f4b36198>
Start Crossover
Evolutionary Search:  63%|██████▎   | 19/30 [01:31<00:50,  4.63s/it, new_best_score=-1.17]Evolutionary Search:  63%|██████▎   | 19/30 [01:31<00:50,  4.63s/it, new_best_score=-1.17]Start Generation=19
Now Best score: -1.1700592248618196 Best Individual <ts_scheduler.individual.Individual object at 0x7f26edb32ef0>
Start Mutation
<ts_scheduler.individual.Individual object at 0x7f26ed8d82b0>
<ts_scheduler.individual.Individual object at 0x7f26ed6f3518>
<ts_scheduler.individual.Individual object at 0x7f26edb2f748>
<ts_scheduler.individual.Individual object at 0x7f26ed720940>
<ts_scheduler.individual.Individual object at 0x7f26f4b36198>
<ts_scheduler.individual.Individual object at 0x7f26f4b3d128>
<ts_scheduler.individual.Individual object at 0x7f26f02242e8>
<ts_scheduler.individual.Individual object at 0x7f26ed7d2160>
<ts_scheduler.individual.Individual object at 0x7f26f4b36198>
<ts_scheduler.individual.Individual object at 0x7f26ed652198>
<ts_scheduler.individual.Individual object at 0x7f26f0263748>
<ts_scheduler.individual.Individual object at 0x7f26ed652198>
<ts_scheduler.individual.Individual object at 0x7f26ed611630>
<ts_scheduler.individual.Individual object at 0x7f26f0275048>
<ts_scheduler.individual.Individual object at 0x7f26ed848dd8>
<ts_scheduler.individual.Individual object at 0x7f26f0263748>
<ts_scheduler.individual.Individual object at 0x7f26ed730b00>
<ts_scheduler.individual.Individual object at 0x7f26ed6f3518>
<ts_scheduler.individual.Individual object at 0x7f26f02242e8>
<ts_scheduler.individual.Individual object at 0x7f26ed7304a8>
<ts_scheduler.individual.Individual object at 0x7f26ed848dd8>
<ts_scheduler.individual.Individual object at 0x7f26f4a24588>
<ts_scheduler.individual.Individual object at 0x7f26f4b06e80>
<ts_scheduler.individual.Individual object at 0x7f26f4a96668>
<ts_scheduler.individual.Individual object at 0x7f26ed9ae438>
Start Crossover
Evolutionary Search:  67%|██████▋   | 20/30 [01:36<00:46,  4.65s/it, new_best_score=-1.17]Evolutionary Search:  67%|██████▋   | 20/30 [01:36<00:46,  4.65s/it, new_best_score=-1.17]Start Generation=20
Now Best score: -1.1700592248618196 Best Individual <ts_scheduler.individual.Individual object at 0x7f26edb32ef0>
Start Mutation
<ts_scheduler.individual.Individual object at 0x7f26f4af5240>
<ts_scheduler.individual.Individual object at 0x7f26f022e208>
<ts_scheduler.individual.Individual object at 0x7f26ed6f3518>
<ts_scheduler.individual.Individual object at 0x7f26ed732588>
<ts_scheduler.individual.Individual object at 0x7f26ed9d6438>
<ts_scheduler.individual.Individual object at 0x7f26ed902b38>
<ts_scheduler.individual.Individual object at 0x7f26f020e668>
<ts_scheduler.individual.Individual object at 0x7f26ed902b38>
<ts_scheduler.individual.Individual object at 0x7f26ed846940>
<ts_scheduler.individual.Individual object at 0x7f26ed677390>
<ts_scheduler.individual.Individual object at 0x7f26f4b36198>
<ts_scheduler.individual.Individual object at 0x7f26f022e208>
<ts_scheduler.individual.Individual object at 0x7f26ed732588>
<ts_scheduler.individual.Individual object at 0x7f26ed720940>
<ts_scheduler.individual.Individual object at 0x7f26ed9b18d0>
<ts_scheduler.individual.Individual object at 0x7f26ed9b18d0>
<ts_scheduler.individual.Individual object at 0x7f26ed620ac8>
<ts_scheduler.individual.Individual object at 0x7f26f4a96668>
<ts_scheduler.individual.Individual object at 0x7f26f4a24588>
<ts_scheduler.individual.Individual object at 0x7f26f4a965c0>
<ts_scheduler.individual.Individual object at 0x7f26f0275048>
<ts_scheduler.individual.Individual object at 0x7f26ed6fa3c8>
<ts_scheduler.individual.Individual object at 0x7f26f02d9940>
<ts_scheduler.individual.Individual object at 0x7f26f4b3d128>
<ts_scheduler.individual.Individual object at 0x7f26ed611630>
Start Crossover
Evolutionary Search:  70%|███████   | 21/30 [01:40<00:41,  4.61s/it, new_best_score=-1.17]Evolutionary Search:  70%|███████   | 21/30 [01:40<00:41,  4.61s/it, new_best_score=-1.17]Start Generation=21
Now Best score: -1.1700592248618196 Best Individual <ts_scheduler.individual.Individual object at 0x7f26edb32ef0>
Start Mutation
<ts_scheduler.individual.Individual object at 0x7f26f0275048>
<ts_scheduler.individual.Individual object at 0x7f26f4aa5630>
<ts_scheduler.individual.Individual object at 0x7f26f02c1fd0>
<ts_scheduler.individual.Individual object at 0x7f26ed7e9c50>
<ts_scheduler.individual.Individual object at 0x7f26ed6fbcc0>
<ts_scheduler.individual.Individual object at 0x7f26ed9d6438>
<ts_scheduler.individual.Individual object at 0x7f26ed620ac8>
<ts_scheduler.individual.Individual object at 0x7f26f02c1fd0>
<ts_scheduler.individual.Individual object at 0x7f26ed6b2ba8>
<ts_scheduler.individual.Individual object at 0x7f26ed7f5ba8>
<ts_scheduler.individual.Individual object at 0x7f26f0213e80>
<ts_scheduler.individual.Individual object at 0x7f26edaf5a20>
<ts_scheduler.individual.Individual object at 0x7f26ed7d2160>
<ts_scheduler.individual.Individual object at 0x7f26f4a965c0>
<ts_scheduler.individual.Individual object at 0x7f26eda4d668>
<ts_scheduler.individual.Individual object at 0x7f26ed6fbcc0>
<ts_scheduler.individual.Individual object at 0x7f26ed720940>
<ts_scheduler.individual.Individual object at 0x7f26ed6b2438>
<ts_scheduler.individual.Individual object at 0x7f26f020e668>
<ts_scheduler.individual.Individual object at 0x7f26ed620ac8>
<ts_scheduler.individual.Individual object at 0x7f26ed7f5ba8>
<ts_scheduler.individual.Individual object at 0x7f26ed7d2160>
<ts_scheduler.individual.Individual object at 0x7f26f0275048>
<ts_scheduler.individual.Individual object at 0x7f26ed6fbcc0>
<ts_scheduler.individual.Individual object at 0x7f26ed902a90>
Start Crossover
Evolutionary Search:  73%|███████▎  | 22/30 [01:45<00:36,  4.57s/it, new_best_score=-1.17]Evolutionary Search:  73%|███████▎  | 22/30 [01:45<00:36,  4.57s/it, new_best_score=-1.17]Start Generation=22
Now Best score: -1.1700592248618196 Best Individual <ts_scheduler.individual.Individual object at 0x7f26edb32ef0>
Start Mutation
<ts_scheduler.individual.Individual object at 0x7f26ed9b18d0>
<ts_scheduler.individual.Individual object at 0x7f26ed720940>
<ts_scheduler.individual.Individual object at 0x7f26ed7304a8>
<ts_scheduler.individual.Individual object at 0x7f26f4aa5630>
<ts_scheduler.individual.Individual object at 0x7f26f0213e80>
<ts_scheduler.individual.Individual object at 0x7f26ed720940>
<ts_scheduler.individual.Individual object at 0x7f26eda4d668>
<ts_scheduler.individual.Individual object at 0x7f26f4a96668>
<ts_scheduler.individual.Individual object at 0x7f26ed9a1cf8>
<ts_scheduler.individual.Individual object at 0x7f26ed6acc50>
<ts_scheduler.individual.Individual object at 0x7f26ed677390>
<ts_scheduler.individual.Individual object at 0x7f26edb2f748>
<ts_scheduler.individual.Individual object at 0x7f26ed9b18d0>
<ts_scheduler.individual.Individual object at 0x7f26ed848c18>
<ts_scheduler.individual.Individual object at 0x7f26f4aa5630>
<ts_scheduler.individual.Individual object at 0x7f26f4b58208>
<ts_scheduler.individual.Individual object at 0x7f26ed6fa3c8>
<ts_scheduler.individual.Individual object at 0x7f26ed732588>
<ts_scheduler.individual.Individual object at 0x7f26ed848dd8>
<ts_scheduler.individual.Individual object at 0x7f26f4b3d128>
<ts_scheduler.individual.Individual object at 0x7f26ed848dd8>
<ts_scheduler.individual.Individual object at 0x7f26ed732588>
<ts_scheduler.individual.Individual object at 0x7f26ed6b2ba8>
<ts_scheduler.individual.Individual object at 0x7f26edaf5a20>
<ts_scheduler.individual.Individual object at 0x7f26f4b3d128>
Start Crossover
Evolutionary Search:  77%|███████▋  | 23/30 [01:49<00:32,  4.57s/it, new_best_score=-1.17]Evolutionary Search:  77%|███████▋  | 23/30 [01:49<00:32,  4.57s/it, new_best_score=-1.17]Start Generation=23
Now Best score: -1.1700592248618196 Best Individual <ts_scheduler.individual.Individual object at 0x7f26edb32ef0>
Start Mutation
<ts_scheduler.individual.Individual object at 0x7f26ed7304a8>
<ts_scheduler.individual.Individual object at 0x7f26edb32ef0>
<ts_scheduler.individual.Individual object at 0x7f26ed6f3518>
<ts_scheduler.individual.Individual object at 0x7f26ed90a080>
<ts_scheduler.individual.Individual object at 0x7f26edb0fe80>
<ts_scheduler.individual.Individual object at 0x7f26edac11d0>
<ts_scheduler.individual.Individual object at 0x7f26edaf5a20>
<ts_scheduler.individual.Individual object at 0x7f26b56a1208>
<ts_scheduler.individual.Individual object at 0x7f26ed6f2080>
<ts_scheduler.individual.Individual object at 0x7f26edb2f748>
<ts_scheduler.individual.Individual object at 0x7f26f4b58208>
<ts_scheduler.individual.Individual object at 0x7f26f4aa5630>
<ts_scheduler.individual.Individual object at 0x7f26f4a96668>
<ts_scheduler.individual.Individual object at 0x7f26ed9ae940>
<ts_scheduler.individual.Individual object at 0x7f26ed720940>
<ts_scheduler.individual.Individual object at 0x7f26ed7e9c50>
<ts_scheduler.individual.Individual object at 0x7f26ed7f5ba8>
<ts_scheduler.individual.Individual object at 0x7f26ed902a90>
<ts_scheduler.individual.Individual object at 0x7f26ed677390>
<ts_scheduler.individual.Individual object at 0x7f26f4af59b0>
<ts_scheduler.individual.Individual object at 0x7f26ed90a080>
<ts_scheduler.individual.Individual object at 0x7f26f0207630>
<ts_scheduler.individual.Individual object at 0x7f26ed7e9c50>
<ts_scheduler.individual.Individual object at 0x7f26b56a1208>
<ts_scheduler.individual.Individual object at 0x7f26f4a33550>
Start Crossover
Evolutionary Search:  80%|████████  | 24/30 [01:54<00:27,  4.54s/it, new_best_score=-1.17]Evolutionary Search:  80%|████████  | 24/30 [01:54<00:27,  4.54s/it, new_best_score=-1.17]Start Generation=24
Now Best score: -1.1700592248618196 Best Individual <ts_scheduler.individual.Individual object at 0x7f26edb32ef0>
Start Mutation
<ts_scheduler.individual.Individual object at 0x7f26f4b29e48>
<ts_scheduler.individual.Individual object at 0x7f26ed848dd8>
<ts_scheduler.individual.Individual object at 0x7f26ed677390>
<ts_scheduler.individual.Individual object at 0x7f26f4a96668>
<ts_scheduler.individual.Individual object at 0x7f26ed7d2160>
<ts_scheduler.individual.Individual object at 0x7f26ed720940>
<ts_scheduler.individual.Individual object at 0x7f26f0275048>
<ts_scheduler.individual.Individual object at 0x7f26ed848dd8>
<ts_scheduler.individual.Individual object at 0x7f26ed6a92e8>
<ts_scheduler.individual.Individual object at 0x7f26eda4d668>
<ts_scheduler.individual.Individual object at 0x7f26edb0fe80>
<ts_scheduler.individual.Individual object at 0x7f26ed6fbcc0>
<ts_scheduler.individual.Individual object at 0x7f26eda4d668>
<ts_scheduler.individual.Individual object at 0x7f26ed848dd8>
<ts_scheduler.individual.Individual object at 0x7f26ed9ae940>
<ts_scheduler.individual.Individual object at 0x7f26ed6a92e8>
<ts_scheduler.individual.Individual object at 0x7f26ed90a080>
<ts_scheduler.individual.Individual object at 0x7f26f0213e80>
<ts_scheduler.individual.Individual object at 0x7f26ed640438>
<ts_scheduler.individual.Individual object at 0x7f26eda4d668>
<ts_scheduler.individual.Individual object at 0x7f26ed640438>
<ts_scheduler.individual.Individual object at 0x7f26f0213e80>
<ts_scheduler.individual.Individual object at 0x7f26f4b29e48>
<ts_scheduler.individual.Individual object at 0x7f26f4a96668>
<ts_scheduler.individual.Individual object at 0x7f26ed6fbcc0>
Start Crossover
Evolutionary Search:  83%|████████▎ | 25/30 [01:58<00:22,  4.54s/it, new_best_score=-1.17]Evolutionary Search:  83%|████████▎ | 25/30 [01:58<00:22,  4.54s/it, new_best_score=-1.17]Start Generation=25
Now Best score: -1.1700592248618196 Best Individual <ts_scheduler.individual.Individual object at 0x7f26edb32ef0>
Start Mutation
<ts_scheduler.individual.Individual object at 0x7f26edaf5a20>
<ts_scheduler.individual.Individual object at 0x7f26ed902a90>
<ts_scheduler.individual.Individual object at 0x7f26ed7abd68>
<ts_scheduler.individual.Individual object at 0x7f26f4b29e48>
<ts_scheduler.individual.Individual object at 0x7f26ed640438>
<ts_scheduler.individual.Individual object at 0x7f26ed7d2278>
<ts_scheduler.individual.Individual object at 0x7f26edb32ef0>
<ts_scheduler.individual.Individual object at 0x7f26ed9a1cf8>
<ts_scheduler.individual.Individual object at 0x7f26ed902b38>
<ts_scheduler.individual.Individual object at 0x7f26f02636a0>
<ts_scheduler.individual.Individual object at 0x7f26ed90a080>
<ts_scheduler.individual.Individual object at 0x7f26eda73e48>
<ts_scheduler.individual.Individual object at 0x7f26f0275048>
<ts_scheduler.individual.Individual object at 0x7f26ed677390>
<ts_scheduler.individual.Individual object at 0x7f26ed675b70>
<ts_scheduler.individual.Individual object at 0x7f26f4b29630>
<ts_scheduler.individual.Individual object at 0x7f26f03746d8>
<ts_scheduler.individual.Individual object at 0x7f26f0213e80>
<ts_scheduler.individual.Individual object at 0x7f26ed620ac8>
<ts_scheduler.individual.Individual object at 0x7f26eda4d668>
<ts_scheduler.individual.Individual object at 0x7f26f03746d8>
<ts_scheduler.individual.Individual object at 0x7f26ed7d2278>
<ts_scheduler.individual.Individual object at 0x7f26ed6b24a8>
<ts_scheduler.individual.Individual object at 0x7f26f4b58208>
<ts_scheduler.individual.Individual object at 0x7f26ed7abd68>
Start Crossover
Evolutionary Search:  87%|████████▋ | 26/30 [02:03<00:17,  4.48s/it, new_best_score=-1.17]Evolutionary Search:  87%|████████▋ | 26/30 [02:03<00:17,  4.48s/it, new_best_score=-1.17]Start Generation=26
Now Best score: -1.1700592248618196 Best Individual <ts_scheduler.individual.Individual object at 0x7f26edb32ef0>
Start Mutation
<ts_scheduler.individual.Individual object at 0x7f26ed7e9c50>
<ts_scheduler.individual.Individual object at 0x7f26ed9b18d0>
<ts_scheduler.individual.Individual object at 0x7f26f4b36198>
<ts_scheduler.individual.Individual object at 0x7f26ed7f5ba8>
<ts_scheduler.individual.Individual object at 0x7f26ed6f2080>
<ts_scheduler.individual.Individual object at 0x7f26ed902b38>
<ts_scheduler.individual.Individual object at 0x7f26ed7d2278>
<ts_scheduler.individual.Individual object at 0x7f26ed90a080>
<ts_scheduler.individual.Individual object at 0x7f26ed620ac8>
<ts_scheduler.individual.Individual object at 0x7f26f4a24588>
<ts_scheduler.individual.Individual object at 0x7f26ed7f5ba8>
<ts_scheduler.individual.Individual object at 0x7f26ed7e9c50>
<ts_scheduler.individual.Individual object at 0x7f26ed640438>
<ts_scheduler.individual.Individual object at 0x7f26ed6fbcc0>
<ts_scheduler.individual.Individual object at 0x7f26ed677390>
<ts_scheduler.individual.Individual object at 0x7f26ed6f2080>
<ts_scheduler.individual.Individual object at 0x7f26ed7f5ba8>
<ts_scheduler.individual.Individual object at 0x7f26f022c9e8>
<ts_scheduler.individual.Individual object at 0x7f26ed620ac8>
<ts_scheduler.individual.Individual object at 0x7f26f4af59b0>
<ts_scheduler.individual.Individual object at 0x7f26ed6acc50>
<ts_scheduler.individual.Individual object at 0x7f26f02c1fd0>
<ts_scheduler.individual.Individual object at 0x7f26ed6f3518>
<ts_scheduler.individual.Individual object at 0x7f26ed6b2ba8>
<ts_scheduler.individual.Individual object at 0x7f26ed732588>
Start Crossover
Evolutionary Search:  90%|█████████ | 27/30 [02:07<00:13,  4.49s/it, new_best_score=-1.17]Evolutionary Search:  90%|█████████ | 27/30 [02:07<00:13,  4.49s/it, new_best_score=-1.17]Start Generation=27
Now Best score: -1.1700592248618196 Best Individual <ts_scheduler.individual.Individual object at 0x7f26edb32ef0>
Start Mutation
<ts_scheduler.individual.Individual object at 0x7f26ed6acc50>
<ts_scheduler.individual.Individual object at 0x7f26ed620ac8>
<ts_scheduler.individual.Individual object at 0x7f26ed9a1cf8>
<ts_scheduler.individual.Individual object at 0x7f26f4b29e48>
<ts_scheduler.individual.Individual object at 0x7f26f4a33978>
<ts_scheduler.individual.Individual object at 0x7f26f024af60>
<ts_scheduler.individual.Individual object at 0x7f26f4b29e48>
<ts_scheduler.individual.Individual object at 0x7f26eda73e48>
<ts_scheduler.individual.Individual object at 0x7f26f4b29e48>
<ts_scheduler.individual.Individual object at 0x7f26f9a0a470>
<ts_scheduler.individual.Individual object at 0x7f26f9a0a470>
<ts_scheduler.individual.Individual object at 0x7f26ed786080>
<ts_scheduler.individual.Individual object at 0x7f26ed9311d0>
<ts_scheduler.individual.Individual object at 0x7f26f4a24588>
<ts_scheduler.individual.Individual object at 0x7f26f4b29e48>
<ts_scheduler.individual.Individual object at 0x7f26ed7d2278>
<ts_scheduler.individual.Individual object at 0x7f26ed9b18d0>
<ts_scheduler.individual.Individual object at 0x7f26ed729518>
<ts_scheduler.individual.Individual object at 0x7f26f9a0a470>
<ts_scheduler.individual.Individual object at 0x7f26ed9311d0>
<ts_scheduler.individual.Individual object at 0x7f26f03746d8>
<ts_scheduler.individual.Individual object at 0x7f26edaf5a20>
<ts_scheduler.individual.Individual object at 0x7f26f022c9e8>
<ts_scheduler.individual.Individual object at 0x7f26f4a33978>
<ts_scheduler.individual.Individual object at 0x7f26f02d9940>
Start Crossover
Evolutionary Search:  93%|█████████▎| 28/30 [02:11<00:08,  4.42s/it, new_best_score=-1.17]Evolutionary Search:  93%|█████████▎| 28/30 [02:11<00:08,  4.42s/it, new_best_score=-1.17]Start Generation=28
Now Best score: -1.1700592248618196 Best Individual <ts_scheduler.individual.Individual object at 0x7f26edb32ef0>
Start Mutation
<ts_scheduler.individual.Individual object at 0x7f26f028dc88>
<ts_scheduler.individual.Individual object at 0x7f26ed808630>
<ts_scheduler.individual.Individual object at 0x7f26f02c1fd0>
<ts_scheduler.individual.Individual object at 0x7f26eda73e48>
<ts_scheduler.individual.Individual object at 0x7f26ed729518>
<ts_scheduler.individual.Individual object at 0x7f26f028dc88>
<ts_scheduler.individual.Individual object at 0x7f26ed729518>
<ts_scheduler.individual.Individual object at 0x7f26f028dc88>
<ts_scheduler.individual.Individual object at 0x7f26ed902a90>
<ts_scheduler.individual.Individual object at 0x7f26ed7b6780>
<ts_scheduler.individual.Individual object at 0x7f26ed640438>
<ts_scheduler.individual.Individual object at 0x7f26f024af60>
<ts_scheduler.individual.Individual object at 0x7f26edb0fe80>
<ts_scheduler.individual.Individual object at 0x7f26ed6be358>
<ts_scheduler.individual.Individual object at 0x7f26f4b58208>
<ts_scheduler.individual.Individual object at 0x7f26ed640438>
<ts_scheduler.individual.Individual object at 0x7f26ed732588>
<ts_scheduler.individual.Individual object at 0x7f26f4b29e48>
<ts_scheduler.individual.Individual object at 0x7f26f9a0a470>
<ts_scheduler.individual.Individual object at 0x7f26ed677390>
<ts_scheduler.individual.Individual object at 0x7f26f9a0a470>
<ts_scheduler.individual.Individual object at 0x7f26ed9311d0>
<ts_scheduler.individual.Individual object at 0x7f26ed902a90>
<ts_scheduler.individual.Individual object at 0x7f26ed6f2080>
<ts_scheduler.individual.Individual object at 0x7f26f02c1fd0>
Start Crossover
Evolutionary Search:  97%|█████████▋| 29/30 [02:16<00:04,  4.41s/it, new_best_score=-1.17]Evolutionary Search:  97%|█████████▋| 29/30 [02:16<00:04,  4.41s/it, new_best_score=-1.17]Start Generation=29
Now Best score: -1.1700592248618196 Best Individual <ts_scheduler.individual.Individual object at 0x7f26edb32ef0>
Start Mutation
<ts_scheduler.individual.Individual object at 0x7f26ed6f3518>
<ts_scheduler.individual.Individual object at 0x7f26ed6f2080>
<ts_scheduler.individual.Individual object at 0x7f26ed9b18d0>
<ts_scheduler.individual.Individual object at 0x7f26f4b57710>
<ts_scheduler.individual.Individual object at 0x7f26ed7b6780>
<ts_scheduler.individual.Individual object at 0x7f26ed9a1cf8>
<ts_scheduler.individual.Individual object at 0x7f26f4a33978>
<ts_scheduler.individual.Individual object at 0x7f26ed6be358>
<ts_scheduler.individual.Individual object at 0x7f26f4b58208>
<ts_scheduler.individual.Individual object at 0x7f26ed7d2160>
<ts_scheduler.individual.Individual object at 0x7f26ed90a080>
<ts_scheduler.individual.Individual object at 0x7f26f4aa5630>
<ts_scheduler.individual.Individual object at 0x7f26ed9311d0>
<ts_scheduler.individual.Individual object at 0x7f26ed902a90>
<ts_scheduler.individual.Individual object at 0x7f26f0219f60>
<ts_scheduler.individual.Individual object at 0x7f26eda9d668>
<ts_scheduler.individual.Individual object at 0x7f26ed902a90>
<ts_scheduler.individual.Individual object at 0x7f26f4a24588>
<ts_scheduler.individual.Individual object at 0x7f26ed6fbcc0>
<ts_scheduler.individual.Individual object at 0x7f26eda73e48>
<ts_scheduler.individual.Individual object at 0x7f26f4b29e48>
<ts_scheduler.individual.Individual object at 0x7f26f4b57710>
<ts_scheduler.individual.Individual object at 0x7f26edaf5710>
<ts_scheduler.individual.Individual object at 0x7f26f9a0a470>
<ts_scheduler.individual.Individual object at 0x7f26ed6be358>
Start Crossover
Evolutionary Search: 100%|██████████| 30/30 [02:20<00:00,  4.45s/it, new_best_score=-1.17]Evolutionary Search: 100%|██████████| 30/30 [02:20<00:00,  4.69s/it, new_best_score=-1.17]
Finish Evolution Search
Sum Exceeded Latency: 1.1700592248618196
[[ 8  8  9  9  9  9  9  9]
 [ 8  8  9  9  9  9  9  9]
 [ 8  8  8  8 10 10 10 10]
 [ 8  8  8  8 10 10 10 10]
 [ 5  4  3  2 10 10 11 11]
 [ 5  4  3  2 10 10 11 11]
 [ 6  6  1  1 11 11 11 11]
 [ 7  7  0  0 11 11 11 11]]
Info: Working for wide_resnet50_2_layer34
timeloop-mapper.map.txt
====================== FINISH =========================


Info: Working for wide_resnet50_2_layer35
timeloop-mapper.map.txt
====================== FINISH =========================


Info: Working for wide_resnet50_2_layer36
timeloop-mapper.map.txt
====================== FINISH =========================


Info: Working for wide_resnet50_2_layer37
timeloop-mapper.map.txt
====================== FINISH =========================


Info: Working for wide_resnet50_2_layer38
timeloop-mapper.map.txt
====================== FINISH =========================


Info: Working for wide_resnet50_2_layer39
timeloop-mapper.map.txt
====================== FINISH =========================


Info: Working for wide_resnet50_2_layer40
timeloop-mapper.map.txt
====================== FINISH =========================


Info: Working for wide_resnet50_2_layer41
timeloop-mapper.map.txt
====================== FINISH =========================


Info: Working for resnext50_32x4d_layer31
timeloop-mapper.map.txt
====================== FINISH =========================


Info: Working for resnext50_32x4d_layer32
timeloop-mapper.map.txt
====================== FINISH =========================


Info: Working for resnext50_32x4d_layer33
timeloop-mapper.map.txt
====================== FINISH =========================


Info: Working for resnext50_32x4d_layer34
timeloop-mapper.map.txt
====================== FINISH =========================


Info: Working for wide_resnet50_2_layer34
====================== FINISH =========================


Info: Working for wide_resnet50_2_layer35
====================== FINISH =========================


Info: Working for wide_resnet50_2_layer36
====================== FINISH =========================


Info: Working for wide_resnet50_2_layer37
====================== FINISH =========================


Info: Working for wide_resnet50_2_layer38
====================== FINISH =========================


Info: Working for wide_resnet50_2_layer39
====================== FINISH =========================


Info: Working for wide_resnet50_2_layer40
====================== FINISH =========================


Info: Working for wide_resnet50_2_layer41
====================== FINISH =========================


Info: Working for resnext50_32x4d_layer31
====================== FINISH =========================


Info: Working for resnext50_32x4d_layer32
====================== FINISH =========================


Info: Working for resnext50_32x4d_layer33
====================== FINISH =========================


Info: Working for resnext50_32x4d_layer34
====================== FINISH =========================


Generate 100 individuals Parallel
Start Evolution Search...
Evolutionary Search:   0%|          | 0/30 [00:00<?, ?it/s]Evolutionary Search:   0%|          | 0/30 [00:00<?, ?it/s, new_best_score=-1.23]Start Generation=0
Now Best score: -1.2308267343395691 Best Individual <ts_scheduler.individual.Individual object at 0x7f0a2279fa58>
Start Mutation
<ts_scheduler.individual.Individual object at 0x7f0a25092c18>
<ts_scheduler.individual.Individual object at 0x7f0a20053a90>
<ts_scheduler.individual.Individual object at 0x7f0a227f4f98>
<ts_scheduler.individual.Individual object at 0x7f0a278ba6d8>
<ts_scheduler.individual.Individual object at 0x7f0a278b4828>
<ts_scheduler.individual.Individual object at 0x7f0a22940eb8>
<ts_scheduler.individual.Individual object at 0x7f0a25065b00>
<ts_scheduler.individual.Individual object at 0x7f0a200bf8d0>
<ts_scheduler.individual.Individual object at 0x7f0a24ff5e48>
<ts_scheduler.individual.Individual object at 0x7f0a200162e8>
<ts_scheduler.individual.Individual object at 0x7f0a228b8dd8>
<ts_scheduler.individual.Individual object at 0x7f0a20066cf8>
<ts_scheduler.individual.Individual object at 0x7f0a227c6b70>
<ts_scheduler.individual.Individual object at 0x7f0a24fd8198>
<ts_scheduler.individual.Individual object at 0x7f0a24fea438>
<ts_scheduler.individual.Individual object at 0x7f0a25092c18>
<ts_scheduler.individual.Individual object at 0x7f0a2279fa58>
<ts_scheduler.individual.Individual object at 0x7f0a24fc79e8>
<ts_scheduler.individual.Individual object at 0x7f0a25108dd8>
<ts_scheduler.individual.Individual object at 0x7f0a227c6b70>
<ts_scheduler.individual.Individual object at 0x7f0a20066cf8>
<ts_scheduler.individual.Individual object at 0x7f0a1dcda7b8>
<ts_scheduler.individual.Individual object at 0x7f0a1dc283c8>
<ts_scheduler.individual.Individual object at 0x7f0a2294b1d0>
<ts_scheduler.individual.Individual object at 0x7f0a20066cf8>
Start Crossover
Evolutionary Search:   3%|▎         | 1/30 [00:04<02:24,  4.98s/it, new_best_score=-1.23]Evolutionary Search:   3%|▎         | 1/30 [00:04<02:24,  4.98s/it, new_best_score=-1.23]Start Generation=1
Now Best score: -1.2308267343395691 Best Individual <ts_scheduler.individual.Individual object at 0x7f0a2279fa58>
Start Mutation
<ts_scheduler.individual.Individual object at 0x7f0a278ba6d8>
<ts_scheduler.individual.Individual object at 0x7f0a250abef0>
<ts_scheduler.individual.Individual object at 0x7f0a22874fd0>
<ts_scheduler.individual.Individual object at 0x7f0a20095908>
<ts_scheduler.individual.Individual object at 0x7f0a24fea438>
<ts_scheduler.individual.Individual object at 0x7f0a2786d4e0>
<ts_scheduler.individual.Individual object at 0x7f0a1dcbe630>
<ts_scheduler.individual.Individual object at 0x7f0a2279fa58>
<ts_scheduler.individual.Individual object at 0x7f0a2279fa58>
<ts_scheduler.individual.Individual object at 0x7f0a200bf8d0>
<ts_scheduler.individual.Individual object at 0x7f0a200d99e8>
<ts_scheduler.individual.Individual object at 0x7f0a250abef0>
<ts_scheduler.individual.Individual object at 0x7f0a2501fd30>
<ts_scheduler.individual.Individual object at 0x7f0a20095908>
<ts_scheduler.individual.Individual object at 0x7f0a278c44e0>
<ts_scheduler.individual.Individual object at 0x7f0a2501fd30>
<ts_scheduler.individual.Individual object at 0x7f0a24fea438>
<ts_scheduler.individual.Individual object at 0x7f0a20095908>
<ts_scheduler.individual.Individual object at 0x7f0a25108be0>
<ts_scheduler.individual.Individual object at 0x7f0a2280a6d8>
<ts_scheduler.individual.Individual object at 0x7f0a22900d30>
<ts_scheduler.individual.Individual object at 0x7f0a1db880f0>
<ts_scheduler.individual.Individual object at 0x7f0a27845a90>
<ts_scheduler.individual.Individual object at 0x7f0a250c7128>
<ts_scheduler.individual.Individual object at 0x7f0a200d99e8>
Start Crossover
Evolutionary Search:   7%|▋         | 2/30 [00:09<02:16,  4.88s/it, new_best_score=-1.23]Evolutionary Search:   7%|▋         | 2/30 [00:09<02:16,  4.88s/it, new_best_score=-1.23]Start Generation=2
Now Best score: -1.2308267343395691 Best Individual <ts_scheduler.individual.Individual object at 0x7f0a2279fa58>
Start Mutation
<ts_scheduler.individual.Individual object at 0x7f0a250c70f0>
<ts_scheduler.individual.Individual object at 0x7f0a1dc09550>
<ts_scheduler.individual.Individual object at 0x7f0a2280a6d8>
<ts_scheduler.individual.Individual object at 0x7f0a1fffaba8>
<ts_scheduler.individual.Individual object at 0x7f0a227ea198>
<ts_scheduler.individual.Individual object at 0x7f0a1dc6ccc0>
<ts_scheduler.individual.Individual object at 0x7f0a228d2d30>
<ts_scheduler.individual.Individual object at 0x7f0a1fffaba8>
<ts_scheduler.individual.Individual object at 0x7f0a22874fd0>
<ts_scheduler.individual.Individual object at 0x7f0a227ea198>
<ts_scheduler.individual.Individual object at 0x7f0a25092c18>
<ts_scheduler.individual.Individual object at 0x7f0a1dc09550>
<ts_scheduler.individual.Individual object at 0x7f0a27845a90>
<ts_scheduler.individual.Individual object at 0x7f0a25049358>
<ts_scheduler.individual.Individual object at 0x7f0a278ba6d8>
<ts_scheduler.individual.Individual object at 0x7f0a278ba6d8>
<ts_scheduler.individual.Individual object at 0x7f0a22940e48>
<ts_scheduler.individual.Individual object at 0x7f0a24fa2198>
<ts_scheduler.individual.Individual object at 0x7f0a250c7128>
<ts_scheduler.individual.Individual object at 0x7f0a2502d860>
<ts_scheduler.individual.Individual object at 0x7f0a2280a6d8>
<ts_scheduler.individual.Individual object at 0x7f0a2788d7b8>
<ts_scheduler.individual.Individual object at 0x7f0a250c7128>
<ts_scheduler.individual.Individual object at 0x7f0a227ea198>
<ts_scheduler.individual.Individual object at 0x7f0a1dc09550>
Start Crossover
Evolutionary Search:  10%|█         | 3/30 [00:14<02:11,  4.86s/it, new_best_score=-1.23]Evolutionary Search:  10%|█         | 3/30 [00:14<02:11,  4.86s/it, new_best_score=-1.18]Start Generation=3
Now Best score: -1.1811787135134668 Best Individual <ts_scheduler.individual.Individual object at 0x7f0a277caac8>
Start Mutation
<ts_scheduler.individual.Individual object at 0x7f0a1dbc04a8>
<ts_scheduler.individual.Individual object at 0x7f0a277fb2b0>
<ts_scheduler.individual.Individual object at 0x7f0a228cd940>
<ts_scheduler.individual.Individual object at 0x7f0a277fb2b0>
<ts_scheduler.individual.Individual object at 0x7f0a1dcc8438>
<ts_scheduler.individual.Individual object at 0x7f0a277fb5c0>
<ts_scheduler.individual.Individual object at 0x7f0a227aea58>
<ts_scheduler.individual.Individual object at 0x7f0a278434e0>
<ts_scheduler.individual.Individual object at 0x7f0a20095898>
<ts_scheduler.individual.Individual object at 0x7f0a2279fa58>
<ts_scheduler.individual.Individual object at 0x7f0a2784b630>
<ts_scheduler.individual.Individual object at 0x7f0a250497b8>
<ts_scheduler.individual.Individual object at 0x7f0a228d2d30>
<ts_scheduler.individual.Individual object at 0x7f0a27849080>
<ts_scheduler.individual.Individual object at 0x7f0a228cda58>
<ts_scheduler.individual.Individual object at 0x7f0a277caac8>
<ts_scheduler.individual.Individual object at 0x7f0a227aea58>
<ts_scheduler.individual.Individual object at 0x7f0a24ff5978>
<ts_scheduler.individual.Individual object at 0x7f0a200bb6d8>
<ts_scheduler.individual.Individual object at 0x7f0a250497b8>
<ts_scheduler.individual.Individual object at 0x7f0a24fa2198>
<ts_scheduler.individual.Individual object at 0x7f0a1fffa8d0>
<ts_scheduler.individual.Individual object at 0x7f0a200bf8d0>
<ts_scheduler.individual.Individual object at 0x7f0a2280a198>
<ts_scheduler.individual.Individual object at 0x7f0a2279fa58>
Start Crossover
Evolutionary Search:  13%|█▎        | 4/30 [00:19<02:05,  4.81s/it, new_best_score=-1.18]Evolutionary Search:  13%|█▎        | 4/30 [00:19<02:05,  4.81s/it, new_best_score=-1.18]Start Generation=4
Now Best score: -1.1811787135134668 Best Individual <ts_scheduler.individual.Individual object at 0x7f0a277caac8>
Start Mutation
<ts_scheduler.individual.Individual object at 0x7f0a1dbd3ac8>
<ts_scheduler.individual.Individual object at 0x7f0a228d2ef0>
<ts_scheduler.individual.Individual object at 0x7f0a200404e0>
<ts_scheduler.individual.Individual object at 0x7f0a24ff5978>
<ts_scheduler.individual.Individual object at 0x7f0a1dbd3ac8>
<ts_scheduler.individual.Individual object at 0x7f0a200da320>
<ts_scheduler.individual.Individual object at 0x7f0a1db53b38>
<ts_scheduler.individual.Individual object at 0x7f0a1dc12748>
<ts_scheduler.individual.Individual object at 0x7f0a24fa2198>
<ts_scheduler.individual.Individual object at 0x7f0a20063198>
<ts_scheduler.individual.Individual object at 0x7f0a2280a198>
<ts_scheduler.individual.Individual object at 0x7f0a200bf8d0>
<ts_scheduler.individual.Individual object at 0x7f0a1dbd3ac8>
<ts_scheduler.individual.Individual object at 0x7f0a200da320>
<ts_scheduler.individual.Individual object at 0x7f0a200bf8d0>
<ts_scheduler.individual.Individual object at 0x7f0a228b8710>
<ts_scheduler.individual.Individual object at 0x7f0a200d9a58>
<ts_scheduler.individual.Individual object at 0x7f0a2281afd0>
<ts_scheduler.individual.Individual object at 0x7f0a200bf8d0>
<ts_scheduler.individual.Individual object at 0x7f0a278434e0>
<ts_scheduler.individual.Individual object at 0x7f0a228d2ef0>
<ts_scheduler.individual.Individual object at 0x7f0a20063198>
<ts_scheduler.individual.Individual object at 0x7f0a24fa2198>
<ts_scheduler.individual.Individual object at 0x7f0a277caac8>
<ts_scheduler.individual.Individual object at 0x7f0a227aea58>
Start Crossover
Evolutionary Search:  17%|█▋        | 5/30 [00:24<01:59,  4.80s/it, new_best_score=-1.18]Evolutionary Search:  17%|█▋        | 5/30 [00:24<01:59,  4.80s/it, new_best_score=-1.18]Start Generation=5
Now Best score: -1.1811787135134668 Best Individual <ts_scheduler.individual.Individual object at 0x7f0a277caac8>
Start Mutation
<ts_scheduler.individual.Individual object at 0x7f0a25051898>
<ts_scheduler.individual.Individual object at 0x7f0a1db65198>
<ts_scheduler.individual.Individual object at 0x7f0a25051588>
<ts_scheduler.individual.Individual object at 0x7f0a24ff5978>
<ts_scheduler.individual.Individual object at 0x7f0a2280a198>
<ts_scheduler.individual.Individual object at 0x7f0a2279fb38>
<ts_scheduler.individual.Individual object at 0x7f0a24f9b5c0>
<ts_scheduler.individual.Individual object at 0x7f0a22874fd0>
<ts_scheduler.individual.Individual object at 0x7f0a1dd4c5f8>
<ts_scheduler.individual.Individual object at 0x7f0a2287c198>
<ts_scheduler.individual.Individual object at 0x7f0a20095898>
<ts_scheduler.individual.Individual object at 0x7f0a2502d860>
<ts_scheduler.individual.Individual object at 0x7f0a24f9b5c0>
<ts_scheduler.individual.Individual object at 0x7f0a1db53b38>
<ts_scheduler.individual.Individual object at 0x7f0a1db3e9e8>
<ts_scheduler.individual.Individual object at 0x7f0a227b3518>
<ts_scheduler.individual.Individual object at 0x7f0a2279fb38>
<ts_scheduler.individual.Individual object at 0x7f0a20095898>
<ts_scheduler.individual.Individual object at 0x7f0a1dc12748>
<ts_scheduler.individual.Individual object at 0x7f0a20063198>
<ts_scheduler.individual.Individual object at 0x7f0a22874fd0>
<ts_scheduler.individual.Individual object at 0x7f0a2784bbe0>
<ts_scheduler.individual.Individual object at 0x7f0a1dbfa128>
<ts_scheduler.individual.Individual object at 0x7f0a2784bbe0>
<ts_scheduler.individual.Individual object at 0x7f0a24f9b5c0>
Start Crossover
Evolutionary Search:  20%|██        | 6/30 [00:28<01:55,  4.80s/it, new_best_score=-1.18]Evolutionary Search:  20%|██        | 6/30 [00:28<01:55,  4.80s/it, new_best_score=-1.18]Start Generation=6
Now Best score: -1.1811787135134668 Best Individual <ts_scheduler.individual.Individual object at 0x7f0a277caac8>
Start Mutation
<ts_scheduler.individual.Individual object at 0x7f0a2502d860>
<ts_scheduler.individual.Individual object at 0x7f0a228740f0>
<ts_scheduler.individual.Individual object at 0x7f0a227eb240>
<ts_scheduler.individual.Individual object at 0x7f0a25022b38>
<ts_scheduler.individual.Individual object at 0x7f0a2279fb38>
<ts_scheduler.individual.Individual object at 0x7f0a200bb208>
<ts_scheduler.individual.Individual object at 0x7f0a1db8d128>
<ts_scheduler.individual.Individual object at 0x7f0a2280a5f8>
<ts_scheduler.individual.Individual object at 0x7f0a1dc15710>
<ts_scheduler.individual.Individual object at 0x7f0a20095898>
<ts_scheduler.individual.Individual object at 0x7f0a1db65198>
<ts_scheduler.individual.Individual object at 0x7f0a25051588>
<ts_scheduler.individual.Individual object at 0x7f0a24fbe518>
<ts_scheduler.individual.Individual object at 0x7f0a24fbe518>
<ts_scheduler.individual.Individual object at 0x7f0a227eb240>
<ts_scheduler.individual.Individual object at 0x7f0a1db53b38>
<ts_scheduler.individual.Individual object at 0x7f0a25051588>
<ts_scheduler.individual.Individual object at 0x7f0a2783f5f8>
<ts_scheduler.individual.Individual object at 0x7f0a2279fa58>
<ts_scheduler.individual.Individual object at 0x7f0a250257b8>
<ts_scheduler.individual.Individual object at 0x7f0a1db65198>
<ts_scheduler.individual.Individual object at 0x7f0a20095898>
<ts_scheduler.individual.Individual object at 0x7f0a1dc15710>
<ts_scheduler.individual.Individual object at 0x7f0a2791d7b8>
<ts_scheduler.individual.Individual object at 0x7f0a1dd4c5f8>
Start Crossover
Evolutionary Search:  23%|██▎       | 7/30 [00:33<01:47,  4.69s/it, new_best_score=-1.18]Evolutionary Search:  23%|██▎       | 7/30 [00:33<01:47,  4.69s/it, new_best_score=-1.18]Start Generation=7
Now Best score: -1.1811787135134668 Best Individual <ts_scheduler.individual.Individual object at 0x7f0a277caac8>
Start Mutation
<ts_scheduler.individual.Individual object at 0x7f0a1dbfa978>
<ts_scheduler.individual.Individual object at 0x7f0a1db86c18>
<ts_scheduler.individual.Individual object at 0x7f0a24fbe518>
<ts_scheduler.individual.Individual object at 0x7f0a200a9f60>
<ts_scheduler.individual.Individual object at 0x7f0a2780e0f0>
<ts_scheduler.individual.Individual object at 0x7f0a2279fa58>
<ts_scheduler.individual.Individual object at 0x7f0a200404e0>
[...]
<ts_scheduler.individual.Individual object at 0x7fd11d38b908>
<ts_scheduler.individual.Individual object at 0x7fd11d2d4470>
<ts_scheduler.individual.Individual object at 0x7fd11d0848d0>
<ts_scheduler.individual.Individual object at 0x7fd11d25aa90>
<ts_scheduler.individual.Individual object at 0x7fd11d13feb8>
<ts_scheduler.individual.Individual object at 0x7fd11d1f7b38>
<ts_scheduler.individual.Individual object at 0x7fd11d26bba8>
<ts_scheduler.individual.Individual object at 0x7fd11d236208>
<ts_scheduler.individual.Individual object at 0x7fd121519a20>
<ts_scheduler.individual.Individual object at 0x7fd1217d7f98>
<ts_scheduler.individual.Individual object at 0x7fd1217a17b8>
<ts_scheduler.individual.Individual object at 0x7fd1217cbcc0>
Start Crossover
Evolutionary Search:  67%|██████▋   | 20/30 [01:33<00:45,  4.59s/it, new_best_score=-1.33]Evolutionary Search:  67%|██████▋   | 20/30 [01:33<00:45,  4.59s/it, new_best_score=-1.33]Start Generation=20
Now Best score: -1.3304867963668985 Best Individual <ts_scheduler.individual.Individual object at 0x7fd11d236208>
Start Mutation
<ts_scheduler.individual.Individual object at 0x7fd11d20b160>
<ts_scheduler.individual.Individual object at 0x7fd11d13feb8>
<ts_scheduler.individual.Individual object at 0x7fd11d02d5c0>
<ts_scheduler.individual.Individual object at 0x7fd1217850b8>
<ts_scheduler.individual.Individual object at 0x7fd121427358>
<ts_scheduler.individual.Individual object at 0x7fd11d08a358>
<ts_scheduler.individual.Individual object at 0x7fd11d31e0f0>
<ts_scheduler.individual.Individual object at 0x7fd11d385080>
<ts_scheduler.individual.Individual object at 0x7fd11d39df28>
<ts_scheduler.individual.Individual object at 0x7fd11d25aa90>
<ts_scheduler.individual.Individual object at 0x7fd121855908>
<ts_scheduler.individual.Individual object at 0x7fd1216cce80>
<ts_scheduler.individual.Individual object at 0x7fd121519a20>
<ts_scheduler.individual.Individual object at 0x7fd1216cce80>
<ts_scheduler.individual.Individual object at 0x7fd11d3013c8>
<ts_scheduler.individual.Individual object at 0x7fd12178a8d0>
<ts_scheduler.individual.Individual object at 0x7fd121505470>
<ts_scheduler.individual.Individual object at 0x7fd11d236208>
<ts_scheduler.individual.Individual object at 0x7fd1215ffd68>
<ts_scheduler.individual.Individual object at 0x7fd11d1f7b38>
<ts_scheduler.individual.Individual object at 0x7fd121427f60>
<ts_scheduler.individual.Individual object at 0x7fd121855908>
<ts_scheduler.individual.Individual object at 0x7fd11d0848d0>
<ts_scheduler.individual.Individual object at 0x7fd121855908>
<ts_scheduler.individual.Individual object at 0x7fd121427588>
Start Crossover
Evolutionary Search:  70%|███████   | 21/30 [01:38<00:41,  4.60s/it, new_best_score=-1.33]Evolutionary Search:  70%|███████   | 21/30 [01:38<00:41,  4.60s/it, new_best_score=-1.33]Start Generation=21
Now Best score: -1.3304867963668985 Best Individual <ts_scheduler.individual.Individual object at 0x7fd11d236208>
Start Mutation
<ts_scheduler.individual.Individual object at 0x7fd12180dba8>
<ts_scheduler.individual.Individual object at 0x7fd11d150240>
<ts_scheduler.individual.Individual object at 0x7fd121427f60>
<ts_scheduler.individual.Individual object at 0x7fd121568f98>
<ts_scheduler.individual.Individual object at 0x7fd121427358>
<ts_scheduler.individual.Individual object at 0x7fd11d150240>
<ts_scheduler.individual.Individual object at 0x7fd1214b1908>
<ts_scheduler.individual.Individual object at 0x7fd121427358>
<ts_scheduler.individual.Individual object at 0x7fd11d1f7b38>
<ts_scheduler.individual.Individual object at 0x7fd11d39df28>
<ts_scheduler.individual.Individual object at 0x7fd1217cb470>
<ts_scheduler.individual.Individual object at 0x7fd121435dd8>
<ts_scheduler.individual.Individual object at 0x7fd121427f60>
<ts_scheduler.individual.Individual object at 0x7fd12186dfd0>
<ts_scheduler.individual.Individual object at 0x7fd121427588>
<ts_scheduler.individual.Individual object at 0x7fd11d08a358>
<ts_scheduler.individual.Individual object at 0x7fd121427358>
<ts_scheduler.individual.Individual object at 0x7fd121893b70>
<ts_scheduler.individual.Individual object at 0x7fd121519a20>
<ts_scheduler.individual.Individual object at 0x7fd11d1b8dd8>
<ts_scheduler.individual.Individual object at 0x7fd1217850b8>
<ts_scheduler.individual.Individual object at 0x7fd11d1507b8>
<ts_scheduler.individual.Individual object at 0x7fd11d20b160>
<ts_scheduler.individual.Individual object at 0x7fd121427358>
<ts_scheduler.individual.Individual object at 0x7fd121568f98>
Start Crossover
Evolutionary Search:  73%|███████▎  | 22/30 [01:42<00:37,  4.63s/it, new_best_score=-1.33]Evolutionary Search:  73%|███████▎  | 22/30 [01:42<00:37,  4.63s/it, new_best_score=-1.33]Start Generation=22
Now Best score: -1.3304867963668985 Best Individual <ts_scheduler.individual.Individual object at 0x7fd11d236208>
Start Mutation
<ts_scheduler.individual.Individual object at 0x7fd1215ffd68>
<ts_scheduler.individual.Individual object at 0x7fd12178a8d0>
<ts_scheduler.individual.Individual object at 0x7fd11d040160>
<ts_scheduler.individual.Individual object at 0x7fd12142e0f0>
<ts_scheduler.individual.Individual object at 0x7fd1216f3048>
<ts_scheduler.individual.Individual object at 0x7fd11d1b8dd8>
<ts_scheduler.individual.Individual object at 0x7fd11d13feb8>
<ts_scheduler.individual.Individual object at 0x7fd11d040160>
<ts_scheduler.individual.Individual object at 0x7fd11d23cc88>
<ts_scheduler.individual.Individual object at 0x7fd121568f98>
<ts_scheduler.individual.Individual object at 0x7fd12178a8d0>
<ts_scheduler.individual.Individual object at 0x7fd1216a6240>
<ts_scheduler.individual.Individual object at 0x7fd11d13feb8>
<ts_scheduler.individual.Individual object at 0x7fd121427f60>
<ts_scheduler.individual.Individual object at 0x7fd11d39df28>
<ts_scheduler.individual.Individual object at 0x7fd121435dd8>
<ts_scheduler.individual.Individual object at 0x7fd11d109a58>
<ts_scheduler.individual.Individual object at 0x7fd1217cb470>
<ts_scheduler.individual.Individual object at 0x7fd11d392198>
<ts_scheduler.individual.Individual object at 0x7fd1217850b8>
<ts_scheduler.individual.Individual object at 0x7fd12180dba8>
<ts_scheduler.individual.Individual object at 0x7fd121435dd8>
<ts_scheduler.individual.Individual object at 0x7fd1216f3048>
<ts_scheduler.individual.Individual object at 0x7fd11d31eb70>
<ts_scheduler.individual.Individual object at 0x7fd11d392198>
Start Crossover
Evolutionary Search:  77%|███████▋  | 23/30 [01:47<00:32,  4.60s/it, new_best_score=-1.33]Evolutionary Search:  77%|███████▋  | 23/30 [01:47<00:32,  4.60s/it, new_best_score=-1.33]Start Generation=23
Now Best score: -1.3304867963668985 Best Individual <ts_scheduler.individual.Individual object at 0x7fd11d236208>
Start Mutation
<ts_scheduler.individual.Individual object at 0x7fd11d385080>
<ts_scheduler.individual.Individual object at 0x7fd121841208>
<ts_scheduler.individual.Individual object at 0x7fd11d109a58>
<ts_scheduler.individual.Individual object at 0x7fd121427f60>
<ts_scheduler.individual.Individual object at 0x7fd11d34cc18>
<ts_scheduler.individual.Individual object at 0x7fd11d2fa860>
<ts_scheduler.individual.Individual object at 0x7fd11d1a8e80>
<ts_scheduler.individual.Individual object at 0x7fd12180dba8>
<ts_scheduler.individual.Individual object at 0x7fd1214fd080>
<ts_scheduler.individual.Individual object at 0x7fd121427358>
<ts_scheduler.individual.Individual object at 0x7fd1217cbcc0>
<ts_scheduler.individual.Individual object at 0x7fd11d385080>
<ts_scheduler.individual.Individual object at 0x7fd11d040160>
<ts_scheduler.individual.Individual object at 0x7fd12142e0f0>
<ts_scheduler.individual.Individual object at 0x7fd11d1a8e80>
<ts_scheduler.individual.Individual object at 0x7fd1216f3048>
<ts_scheduler.individual.Individual object at 0x7fd12186dfd0>
<ts_scheduler.individual.Individual object at 0x7fd121568f98>
<ts_scheduler.individual.Individual object at 0x7fd11d1f7b38>
<ts_scheduler.individual.Individual object at 0x7fd11d23cc88>
<ts_scheduler.individual.Individual object at 0x7fd11d040160>
<ts_scheduler.individual.Individual object at 0x7fd12185af98>
<ts_scheduler.individual.Individual object at 0x7fd1216cce80>
<ts_scheduler.individual.Individual object at 0x7fd11d08a358>
<ts_scheduler.individual.Individual object at 0x7fd1216f3080>
Start Crossover
Evolutionary Search:  80%|████████  | 24/30 [01:51<00:27,  4.58s/it, new_best_score=-1.33]Evolutionary Search:  80%|████████  | 24/30 [01:51<00:27,  4.58s/it, new_best_score=-1.33]Start Generation=24
Now Best score: -1.3304867963668985 Best Individual <ts_scheduler.individual.Individual object at 0x7fd11d236208>
Start Mutation
<ts_scheduler.individual.Individual object at 0x7fd12185af98>
<ts_scheduler.individual.Individual object at 0x7fd11d31eb70>
<ts_scheduler.individual.Individual object at 0x7fd11d2fa860>
<ts_scheduler.individual.Individual object at 0x7fd11d1b8dd8>
<ts_scheduler.individual.Individual object at 0x7fd11d08a358>
<ts_scheduler.individual.Individual object at 0x7fd11d390278>
<ts_scheduler.individual.Individual object at 0x7fd1217850b8>
<ts_scheduler.individual.Individual object at 0x7fd121519a20>
<ts_scheduler.individual.Individual object at 0x7fd121427f60>
<ts_scheduler.individual.Individual object at 0x7fd121505470>
<ts_scheduler.individual.Individual object at 0x7fd11d392198>
<ts_scheduler.individual.Individual object at 0x7fd11d3013c8>
<ts_scheduler.individual.Individual object at 0x7fd11d2d6390>
<ts_scheduler.individual.Individual object at 0x7fd1215ffd68>
<ts_scheduler.individual.Individual object at 0x7fd1218412e8>
<ts_scheduler.individual.Individual object at 0x7fd11d392198>
<ts_scheduler.individual.Individual object at 0x7fd11d39df28>
<ts_scheduler.individual.Individual object at 0x7fd1217cb470>
<ts_scheduler.individual.Individual object at 0x7fd11d1f7b38>
<ts_scheduler.individual.Individual object at 0x7fd121427f60>
<ts_scheduler.individual.Individual object at 0x7fd11d040160>
<ts_scheduler.individual.Individual object at 0x7fd11d2d6390>
<ts_scheduler.individual.Individual object at 0x7fd11d1f7b38>
<ts_scheduler.individual.Individual object at 0x7fd11d2d4160>
<ts_scheduler.individual.Individual object at 0x7fd11d31e0f0>
Start Crossover
Evolutionary Search:  83%|████████▎ | 25/30 [01:56<00:23,  4.62s/it, new_best_score=-1.33]Evolutionary Search:  83%|████████▎ | 25/30 [01:56<00:23,  4.62s/it, new_best_score=-1.33]Start Generation=25
Now Best score: -1.3304867963668985 Best Individual <ts_scheduler.individual.Individual object at 0x7fd11d236208>
Start Mutation
<ts_scheduler.individual.Individual object at 0x7fd121568f98>
<ts_scheduler.individual.Individual object at 0x7fd11d08a358>
<ts_scheduler.individual.Individual object at 0x7fd11d312d30>
<ts_scheduler.individual.Individual object at 0x7fd11d20b160>
<ts_scheduler.individual.Individual object at 0x7fd1218412e8>
<ts_scheduler.individual.Individual object at 0x7fd11d1be160>
<ts_scheduler.individual.Individual object at 0x7fd11d040160>
<ts_scheduler.individual.Individual object at 0x7fd1218963c8>
<ts_scheduler.individual.Individual object at 0x7fd1216a6240>
<ts_scheduler.individual.Individual object at 0x7fd11d23cc88>
<ts_scheduler.individual.Individual object at 0x7fd11d31eb70>
<ts_scheduler.individual.Individual object at 0x7fd11d3013c8>
<ts_scheduler.individual.Individual object at 0x7fd1216cce80>
<ts_scheduler.individual.Individual object at 0x7fd11d08a358>
<ts_scheduler.individual.Individual object at 0x7fd12162ee10>
<ts_scheduler.individual.Individual object at 0x7fd11d39df28>
<ts_scheduler.individual.Individual object at 0x7fd11d040160>
<ts_scheduler.individual.Individual object at 0x7fd11d31eb70>
<ts_scheduler.individual.Individual object at 0x7fd11d040160>
<ts_scheduler.individual.Individual object at 0x7fd11d2d4160>
<ts_scheduler.individual.Individual object at 0x7fd121505470>
<ts_scheduler.individual.Individual object at 0x7fd1216cce80>
<ts_scheduler.individual.Individual object at 0x7fd11d2fa860>
<ts_scheduler.individual.Individual object at 0x7fd121841208>
<ts_scheduler.individual.Individual object at 0x7fd121427358>
Start Crossover
Evolutionary Search:  87%|████████▋ | 26/30 [02:01<00:18,  4.60s/it, new_best_score=-1.33]Evolutionary Search:  87%|████████▋ | 26/30 [02:01<00:18,  4.60s/it, new_best_score=-1.32]Start Generation=26
Now Best score: -1.3196739372040607 Best Individual <ts_scheduler.individual.Individual object at 0x7fd11d0a4da0>
Start Mutation
<ts_scheduler.individual.Individual object at 0x7fd11d1be160>
<ts_scheduler.individual.Individual object at 0x7fd11d3013c8>
<ts_scheduler.individual.Individual object at 0x7fd11d1b8dd8>
<ts_scheduler.individual.Individual object at 0x7fd1215815f8>
<ts_scheduler.individual.Individual object at 0x7fd11d1507b8>
<ts_scheduler.individual.Individual object at 0x7fd12186dfd0>
<ts_scheduler.individual.Individual object at 0x7fd11d312208>
<ts_scheduler.individual.Individual object at 0x7fd121427f60>
<ts_scheduler.individual.Individual object at 0x7fd11d39df28>
<ts_scheduler.individual.Individual object at 0x7fd11d1507b8>
<ts_scheduler.individual.Individual object at 0x7fd11d39d860>
<ts_scheduler.individual.Individual object at 0x7fd12186dfd0>
<ts_scheduler.individual.Individual object at 0x7fd11d31eb70>
<ts_scheduler.individual.Individual object at 0x7fd12178a8d0>
<ts_scheduler.individual.Individual object at 0x7fd1216cf860>
<ts_scheduler.individual.Individual object at 0x7fd11d39df28>
<ts_scheduler.individual.Individual object at 0x7fd1216cf860>
<ts_scheduler.individual.Individual object at 0x7fd11d13f748>
<ts_scheduler.individual.Individual object at 0x7fd11d0b9e10>
<ts_scheduler.individual.Individual object at 0x7fd11d3013c8>
<ts_scheduler.individual.Individual object at 0x7fd11d39df28>
<ts_scheduler.individual.Individual object at 0x7fd12145e940>
<ts_scheduler.individual.Individual object at 0x7fd11d0b9e10>
<ts_scheduler.individual.Individual object at 0x7fd1214332e8>
<ts_scheduler.individual.Individual object at 0x7fd11d385080>
Start Crossover
Evolutionary Search:  90%|█████████ | 27/30 [02:05<00:13,  4.63s/it, new_best_score=-1.32]Evolutionary Search:  90%|█████████ | 27/30 [02:05<00:13,  4.63s/it, new_best_score=-1.32]Start Generation=27
Now Best score: -1.3196739372040607 Best Individual <ts_scheduler.individual.Individual object at 0x7fd11d0a4da0>
Start Mutation
<ts_scheduler.individual.Individual object at 0x7fd1215815f8>
<ts_scheduler.individual.Individual object at 0x7fd11d13f748>
<ts_scheduler.individual.Individual object at 0x7fd11d1a8e80>
<ts_scheduler.individual.Individual object at 0x7fd11d3013c8>
<ts_scheduler.individual.Individual object at 0x7fd11d23cc88>
<ts_scheduler.individual.Individual object at 0x7fd11d39d860>
<ts_scheduler.individual.Individual object at 0x7fd11d390278>
<ts_scheduler.individual.Individual object at 0x7fd121433978>
<ts_scheduler.individual.Individual object at 0x7fd121841208>
<ts_scheduler.individual.Individual object at 0x7fd12162ee10>
<ts_scheduler.individual.Individual object at 0x7fd121427f60>
<ts_scheduler.individual.Individual object at 0x7fd1216cf860>
<ts_scheduler.individual.Individual object at 0x7fd11d236208>
<ts_scheduler.individual.Individual object at 0x7fd1218963c8>
<ts_scheduler.individual.Individual object at 0x7fd121427f60>
<ts_scheduler.individual.Individual object at 0x7fd1216931d0>
<ts_scheduler.individual.Individual object at 0x7fd1215ffd68>
<ts_scheduler.individual.Individual object at 0x7fd11d2fa860>
<ts_scheduler.individual.Individual object at 0x7fd11d312d30>
<ts_scheduler.individual.Individual object at 0x7fd1215ffd68>
<ts_scheduler.individual.Individual object at 0x7fd11d040160>
<ts_scheduler.individual.Individual object at 0x7fd1214332e8>
<ts_scheduler.individual.Individual object at 0x7fd11d150240>
<ts_scheduler.individual.Individual object at 0x7fd12178a8d0>
<ts_scheduler.individual.Individual object at 0x7fd11d20b160>
Start Crossover
Evolutionary Search:  93%|█████████▎| 28/30 [02:10<00:09,  4.61s/it, new_best_score=-1.32]Evolutionary Search:  93%|█████████▎| 28/30 [02:10<00:09,  4.61s/it, new_best_score=-1.32]Start Generation=28
Now Best score: -1.3196739372040607 Best Individual <ts_scheduler.individual.Individual object at 0x7fd11d0a4da0>
Start Mutation
<ts_scheduler.individual.Individual object at 0x7fd121433978>
<ts_scheduler.individual.Individual object at 0x7fd11d02dda0>
<ts_scheduler.individual.Individual object at 0x7fd12180dba8>
<ts_scheduler.individual.Individual object at 0x7fd11d39d860>
<ts_scheduler.individual.Individual object at 0x7fd11d23cc88>
<ts_scheduler.individual.Individual object at 0x7fd1217850b8>
<ts_scheduler.individual.Individual object at 0x7fd11d1a8e80>
<ts_scheduler.individual.Individual object at 0x7fd121841208>
<ts_scheduler.individual.Individual object at 0x7fd11d34cc18>
<ts_scheduler.individual.Individual object at 0x7fd121557a58>
<ts_scheduler.individual.Individual object at 0x7fd121557a58>
<ts_scheduler.individual.Individual object at 0x7fd11d39df28>
<ts_scheduler.individual.Individual object at 0x7fd11d150240>
<ts_scheduler.individual.Individual object at 0x7fd1216931d0>
<ts_scheduler.individual.Individual object at 0x7fd11d08a358>
<ts_scheduler.individual.Individual object at 0x7fd121433978>
<ts_scheduler.individual.Individual object at 0x7fd11d08a358>
<ts_scheduler.individual.Individual object at 0x7fd1217850b8>
<ts_scheduler.individual.Individual object at 0x7fd11d236208>
<ts_scheduler.individual.Individual object at 0x7fd1214332e8>
<ts_scheduler.individual.Individual object at 0x7fd11d392198>
<ts_scheduler.individual.Individual object at 0x7fd12180dba8>
<ts_scheduler.individual.Individual object at 0x7fd1216a6240>
<ts_scheduler.individual.Individual object at 0x7fd11d23cc88>
<ts_scheduler.individual.Individual object at 0x7fd1218412e8>
Start Crossover
Evolutionary Search:  97%|█████████▋| 29/30 [02:14<00:04,  4.62s/it, new_best_score=-1.32]Evolutionary Search:  97%|█████████▋| 29/30 [02:14<00:04,  4.62s/it, new_best_score=-1.32]Start Generation=29
Now Best score: -1.3196739372040607 Best Individual <ts_scheduler.individual.Individual object at 0x7fd11d0a4da0>
Start Mutation
<ts_scheduler.individual.Individual object at 0x7fd11d312d30>
<ts_scheduler.individual.Individual object at 0x7fd1215cd198>
<ts_scheduler.individual.Individual object at 0x7fd121568f98>
<ts_scheduler.individual.Individual object at 0x7fd1216a6240>
<ts_scheduler.individual.Individual object at 0x7fd11d23cc88>
<ts_scheduler.individual.Individual object at 0x7fd1218412e8>
<ts_scheduler.individual.Individual object at 0x7fd11d1b8dd8>
<ts_scheduler.individual.Individual object at 0x7fd11d236208>
<ts_scheduler.individual.Individual object at 0x7fd11d34cc18>
<ts_scheduler.individual.Individual object at 0x7fd121823ac8>
<ts_scheduler.individual.Individual object at 0x7fd11d3013c8>
<ts_scheduler.individual.Individual object at 0x7fd12178a8d0>
<ts_scheduler.individual.Individual object at 0x7fd1215cd198>
<ts_scheduler.individual.Individual object at 0x7fd1215810f0>
<ts_scheduler.individual.Individual object at 0x7fd121834c18>
<ts_scheduler.individual.Individual object at 0x7fd1216a6240>
<ts_scheduler.individual.Individual object at 0x7fd1214ff160>
<ts_scheduler.individual.Individual object at 0x7fd11d02dda0>
<ts_scheduler.individual.Individual object at 0x7fd11d08a358>
<ts_scheduler.individual.Individual object at 0x7fd1216a6240>
<ts_scheduler.individual.Individual object at 0x7fd1215815f8>
<ts_scheduler.individual.Individual object at 0x7fd11d13f860>
<ts_scheduler.individual.Individual object at 0x7fd11d1507b8>
<ts_scheduler.individual.Individual object at 0x7fd11d312d30>
<ts_scheduler.individual.Individual object at 0x7fd1216cf860>
Start Crossover
Evolutionary Search: 100%|██████████| 30/30 [02:19<00:00,  4.59s/it, new_best_score=-1.32]Evolutionary Search: 100%|██████████| 30/30 [02:19<00:00,  4.65s/it, new_best_score=-1.32]
Finish Evolution Search
Sum Exceeded Latency: 1.319673937204061
